test/data/c1/scenario_06/case.raw
0,100.0,33,0,1,60.0
GRID OPTIMIZATION COMPETITION
INPUT DATA FILES ARE RAW ROP INL CON
1,'A1',115.0,1,1,1,1,1.0,0.0,1.06,0.93,1.1,0.9
2,'A2',115.0,1,1,1,1,1.0,0.0,1.06,0.93,1.1,0.9
3,'A3',35.0,1,1,1,1,1.0,0.0,1.06,0.93,1.1,0.9
4,'A4',115.0,1,1,1,1,1.0,0.0,1.06,0.93,1.1,0.9
5,'A5',13.0,1,1,1,1,1.0,0.0,1.06,0.93,1.1,0.9
6,'A6',14.0,2,1,1,1,1.0,0.0,1.06,0.93,1.1,0.9
7,'A7',115.0,1,1,1,1,1.0,0.0,1.06,0.93,1.1,0.9
8,'A8',13.0,1,1,1,1,1.0,0.0,1.06,0.93,1.1,0.9
9,'A9',35.0,1,1,1,1,1.0,0.0,1.06,0.93,1.1,0.9
10,'A10',115.0,1,1,1,1,1.0,0.0,1.06,0.93,1.1,0.9
11,'A11',115.0,1,1,1,1,1.0,0.0,1.06,0.93,1.1,0.9
12,'A12',35.0,1,1,1,1,1.0,0.0,1.06,0.93,1.1,0.9
13,'A13',13.0,1,1,1,1,1.0,0.0,1.06,0.93,1.1,0.9
15,'A15',35.0,1,1,1,1,1.0,0.0,1.06,0.93,1.1,0.9
16,'A16',115.0,1,1,1,1,1.0,0.0,1.06,0.93,1.1,0.9
17,'A17',115.0,1,1,1,1,1.0,0.0,1.06,0.93,1.1,0.9
18,'A18',230.0,1,1,1,1,1.0,0.0,1.06,0.93,1.1,0.9
19,'A19',230.0,1,1,1,1,1.0,0.0,1.06,0.93,1.1,0.9
20,'A20',13.0,1,1,1,1,1.0,0.0,1.06,0.93,1.1,0.9
21,'A21',115.0,1,1,1,1,1.0,0.0,1.06,0.93,1.1,0.9
22,'A22',115.0,1,1,1,1,1.0,0.0,1.06,0.93,1.1,0.9
23,'A23',115.0,2,1,1,1,1.0,0.0,1.06,0.93,1.1,0.9
24,'A24',115.0,1,1,1,1,1.0,0.0,1.06,0.93,1.1,0.9
25,'A25',14.0,2,1,1,1,1.0,0.0,1.06,0.93,1.1,0.9
27,'A27',115.0,1,1,1,1,1.0,0.0,1.06,0.93,1.1,0.9
28,'A28',35.0,1,1,1,1,1.0,0.0,1.06,0.93,1.1,0.9
30,'A30',115.0,1,1,1,1,1.0,0.0,1.06,0.93,1.1,0.9
31,'A31',230.0,2,1,1,1,1.0,0.0,1.06,0.93,1.1,0.9
32,'A32',115.0,1,1,1,1,1.0,0.0,1.06,0.93,1.1,0.9
33,'A33',230.0,2,1,1,1,1.0,0.0,1.06,0.93,1.1,0.9
34,'A34',35.0,1,1,1,1,1.0,0.0,1.06,0.93,1.1,0.9
35,'A35',230.0,2,1,1,1,1.0,0.0,1.06,0.93,1.1,0.9
36,'A36',230.0,1,1,1,1,1.0,0.0,1.06,0.93,1.1,0.9
37,'A37',230.0,1,1,1,1,1.0,0.0,1.06,0.93,1.1,0.9
38,'A38',230.0,1,1,1,1,1.0,0.0,1.06,0.93,1.1,0.9
39,'A39',35.0,1,1,1,1,1.0,0.0,1.06,0.93,1.1,0.9
40,'A40',115.0,1,1,1,1,1.0,0.0,1.06,0.93,1.1,0.9
41,'A41',230.0,1,1,1,1,1.0,0.0,1.06,0.93,1.1,0.9
43,'A43',115.0,2,1,1,1,1.0,0.0,1.06,0.93,1.1,0.9
44,'A44',115.0,1,1,1,1,1.0,0.0,1.06,0.93,1.1,0.9
45,'A45',230.0,2,1,1,1,1.0,0.0,1.06,0.93,1.1,0.9
46,'A46',230.0,2,1,1,1,1.0,0.0,1.06,0.93,1.1,0.9
47,'A47',115.0,2,1,1,1,1.0,0.0,1.06,0.93,1.1,0.9
49,'A49',35.0,1,1,1,1,1.0,0.0,1.06,0.93,1.1,0.9
50,'A50',115.0,1,1,1,1,1.0,0.0,1.06,0.93,1.1,0.9
51,'A51',13.0,1,1,1,1,1.0,0.0,1.06,0.93,1.1,0.9
52,'A52',230.0,2,1,1,1,1.0,0.0,1.06,0.93,1.1,0.9
53,'A53',115.0,1,1,1,1,1.0,0.0,1.06,0.93,1.1,0.9
54,'A54',35.0,1,1,1,1,1.0,0.0,1.06,0.93,1.1,0.9
55,'A55',230.0,2,1,1,1,1.0,0.0,1.06,0.93,1.1,0.9
56,'A56',35.0,1,1,1,1,1.0,0.0,1.06,0.93,1.1,0.9
57,'A57',115.0,1,1,1,1,1.0,0.0,1.06,0.93,1.1,0.9
58,'A58',115.0,1,1,1,1,1.0,0.0,1.06,0.93,1.1,0.9
59,'A59',35.0,2,1,1,1,1.0,0.0,1.06,0.93,1.1,0.9
60,'A60',115.0,1,1,1,1,1.0,0.0,1.06,0.93,1.1,0.9
61,'A61',13.0,1,1,1,1,1.0,0.0,1.06,0.93,1.1,0.9
62,'A62',115.0,1,1,1,1,1.0,0.0,1.06,0.93,1.1,0.9
63,'A63',230.0,1,1,1,1,1.0,0.0,1.06,0.93,1.1,0.9
64,'A64',35.0,1,1,1,1,1.0,0.0,1.06,0.93,1.1,0.9
65,'A65',14.0,2,1,1,1,1.0,0.0,1.06,0.93,1.1,0.9
66,'A66',230.0,1,1,1,1,1.0,0.0,1.06,0.93,1.1,0.9
67,'A67',115.0,1,1,1,1,1.0,0.0,1.06,0.93,1.1,0.9
68,'A68',115.0,1,1,1,1,1.0,0.0,1.06,0.93,1.1,0.9
69,'A69',230.0,1,1,1,1,1.0,0.0,1.06,0.93,1.1,0.9
70,'A70',35.0,1,1,1,1,1.0,0.0,1.06,0.93,1.1,0.9
71,'A71',115.0,2,1,1,1,1.0,0.0,1.06,0.93,1.1,0.9
72,'A72',115.0,1,1,1,1,1.0,0.0,1.06,0.93,1.1,0.9
73,'A73',115.0,1,1,1,1,1.0,0.0,1.06,0.93,1.1,0.9
74,'A74',115.0,1,1,1,1,1.0,0.0,1.06,0.93,1.1,0.9
75,'A75',13.0,1,1,1,1,1.0,0.0,1.06,0.93,1.1,0.9
76,'A76',115.0,1,1,1,1,1.0,0.0,1.06,0.93,1.1,0.9
77,'A77',35.0,1,1,1,1,1.0,0.0,1.06,0.93,1.1,0.9
78,'A78',35.0,1,1,1,1,1.0,0.0,1.06,0.93,1.1,0.9
79,'A79',230.0,1,1,1,1,1.0,0.0,1.06,0.93,1.1,0.9
80,'A80',14.0,2,1,1,1,1.0,0.0,1.06,0.93,1.1,0.9
81,'A81',115.0,1,1,1,1,1.0,0.0,1.06,0.93,1.1,0.9
82,'A82',115.0,1,1,1,1,1.0,0.0,1.06,0.93,1.1,0.9
83,'A83',115.0,1,1,1,1,1.0,0.0,1.06,0.93,1.1,0.9
84,'A84',115.0,1,1,1,1,1.0,0.0,1.06,0.93,1.1,0.9
85,'A85',115.0,1,1,1,1,1.0,0.0,1.06,0.93,1.1,0.9
86,'A86',230.0,2,1,1,1,1.0,0.0,1.06,0.93,1.1,0.9
87,'A87',230.0,2,1,1,1,1.0,0.0,1.06,0.93,1.1,0.9
88,'A88',35.0,1,1,1,1,1.0,0.0,1.06,0.93,1.1,0.9
89,'A89',35.0,1,1,1,1,1.0,0.0,1.06,0.93,1.1,0.9
90,'A90',230.0,2,1,1,1,1.0,0.0,1.06,0.93,1.1,0.9
91,'A91',115.0,1,1,1,1,1.0,0.0,1.06,0.93,1.1,0.9
92,'A92',115.0,1,1,1,1,1.0,0.0,1.06,0.93,1.1,0.9
93,'A93',115.0,2,1,1,1,1.0,0.0,1.06,0.93,1.1,0.9
94,'A94',115.0,1,1,1,1,1.0,0.0,1.06,0.93,1.1,0.9
95,'B95',345.0,1,1,2,1,1.0,0.0,1.06,0.93,1.1,0.9
96,'B96',345.0,1,1,2,1,1.0,0.0,1.06,0.93,1.1,0.9
97,'B97',345.0,1,1,2,1,1.0,0.0,1.06,0.93,1.1,0.9
98,'B98',345.0,2,1,2,1,1.0,0.0,1.06,0.93,1.1,0.9
99,'B99',345.0,2,1,2,1,1.0,0.0,1.06,0.93,1.1,0.9
100,'B100',345.0,2,1,2,1,1.0,0.0,1.06,0.93,1.1,0.9
101,'B101',345.0,1,1,2,1,1.0,0.0,1.06,0.93,1.1,0.9
102,'B102',345.0,1,1,2,1,1.0,0.0,1.06,0.93,1.1,0.9
103,'B103',138.0,1,1,2,1,1.0,0.0,1.06,0.93,1.1,0.9
104,'B104',138.0,1,1,2,1,1.0,0.0,1.06,0.93,1.1,0.9
105,'B105',138.0,2,1,2,1,1.0,0.0,1.06,0.93,1.1,0.9
106,'B106',138.0,1,1,2,1,1.0,0.0,1.06,0.93,1.1,0.9
107,'B107',138.0,1,1,2,1,1.0,0.0,1.06,0.93,1.1,0.9
108,'B108',138.0,1,1,2,1,1.0,0.0,1.06,0.93,1.1,0.9
109,'B109',138.0,1,1,2,1,1.0,0.0,1.06,0.93,1.1,0.9
110,'B110',138.0,1,1,2,1,1.0,0.0,1.06,0.93,1.1,0.9
111,'B111',138.0,1,1,2,1,1.0,0.0,1.06,0.93,1.1,0.9
112,'B112',138.0,1,1,2,1,1.0,0.0,1.06,0.93,1.1,0.9
113,'B113',138.0,1,1,2,1,1.0,0.0,1.06,0.93,1.1,0.9
114,'B114',138.0,1,1,2,1,1.0,0.0,1.06,0.93,1.1,0.9
115,'B115',138.0,1,1,2,1,1.0,0.0,1.06,0.93,1.1,0.9
116,'B116',138.0,2,1,2,1,1.0,0.0,1.06,0.93,1.1,0.9
117,'B117',138.0,2,1,2,1,1.0,0.0,1.06,0.93,1.1,0.9
118,'B118',138.0,1,1,2,1,1.0,0.0,1.06,0.93,1.1,0.9
119,'B119',138.0,1,1,2,1,1.0,0.0,1.06,0.93,1.1,0.9
120,'B120',138.0,1,1,2,1,1.0,0.0,1.06,0.93,1.1,0.9
121,'B121',138.0,2,1,2,1,1.0,0.0,1.06,0.93,1.1,0.9
122,'B122',138.0,1,1,2,1,1.0,0.0,1.06,0.93,1.1,0.9
123,'B123',138.0,1,1,2,1,1.0,0.0,1.06,0.93,1.1,0.9
124,'B124',138.0,1,1,2,1,1.0,0.0,1.06,0.93,1.1,0.9
125,'B125',138.0,1,1,2,1,1.0,0.0,1.06,0.93,1.1,0.9
126,'B126',138.0,1,1,2,1,1.0,0.0,1.06,0.93,1.1,0.9
127,'B127',138.0,1,1,2,1,1.0,0.0,1.06,0.93,1.1,0.9
128,'B128',138.0,1,1,2,1,1.0,0.0,1.06,0.93,1.1,0.9
129,'B129',138.0,1,1,2,1,1.0,0.0,1.06,0.93,1.1,0.9
130,'B130',138.0,1,1,2,1,1.0,0.0,1.06,0.93,1.1,0.9
131,'B131',138.0,2,1,2,1,1.0,0.0,1.06,0.93,1.1,0.9
132,'B132',138.0,1,1,2,1,1.0,0.0,1.06,0.93,1.1,0.9
133,'B133',138.0,2,1,2,1,1.0,0.0,1.06,0.93,1.1,0.9
134,'B134',138.0,2,1,2,1,1.0,0.0,1.06,0.93,1.1,0.9
135,'B135',138.0,1,1,2,1,1.0,0.0,1.06,0.93,1.1,0.9
136,'B136',138.0,1,1,2,1,1.0,0.0,1.06,0.93,1.1,0.9
137,'B137',138.0,1,1,2,1,1.0,0.0,1.06,0.93,1.1,0.9
138,'B138',138.0,1,1,2,1,1.0,0.0,1.06,0.93,1.1,0.9
139,'B139',138.0,1,1,2,1,1.0,0.0,1.06,0.93,1.1,0.9
140,'B140',138.0,1,1,2,1,1.0,0.0,1.06,0.93,1.1,0.9
141,'B141',138.0,1,1,2,1,1.0,0.0,1.06,0.93,1.1,0.9
142,'B142',138.0,1,1,2,1,1.0,0.0,1.06,0.93,1.1,0.9
143,'B143',138.0,1,1,2,1,1.0,0.0,1.06,0.93,1.1,0.9
144,'B144',138.0,1,1,2,1,1.0,0.0,1.06,0.93,1.1,0.9
145,'B145',138.0,1,1,2,1,1.0,0.0,1.06,0.93,1.1,0.9
146,'B146',138.0,1,1,2,1,1.0,0.0,1.06,0.93,1.1,0.9
147,'B147',138.0,1,1,2,1,1.0,0.0,1.06,0.93,1.1,0.9
148,'B148',138.0,1,1,2,1,1.0,0.0,1.06,0.93,1.1,0.9
149,'B149',138.0,1,1,2,1,1.0,0.0,1.06,0.93,1.1,0.9
150,'B150',138.0,1,1,2,1,1.0,0.0,1.06,0.93,1.1,0.9
151,'B151',138.0,2,1,2,1,1.0,0.0,1.06,0.93,1.1,0.9
152,'B152',138.0,2,1,2,1,1.0,0.0,1.06,0.93,1.1,0.9
153,'B153',138.0,1,1,2,1,1.0,0.0,1.06,0.93,1.1,0.9
154,'B154',138.0,1,1,2,1,1.0,0.0,1.06,0.93,1.1,0.9
155,'B155',138.0,1,1,2,1,1.0,0.0,1.06,0.93,1.1,0.9
156,'B156',138.0,2,1,2,1,1.0,0.0,1.06,0.93,1.1,0.9
157,'B157',138.0,1,1,2,1,1.0,0.0,1.06,0.93,1.1,0.9
158,'B158',138.0,1,1,2,1,1.0,0.0,1.06,0.93,1.1,0.9
159,'B159',138.0,2,1,2,1,1.0,0.0,1.06,0.93,1.1,0.9
160,'B160',138.0,1,1,2,1,1.0,0.0,1.06,0.93,1.1,0.9
161,'B161',138.0,1,1,2,1,1.0,0.0,1.06,0.93,1.1,0.9
162,'B162',138.0,1,1,2,1,1.0,0.0,1.06,0.93,1.1,0.9
163,'B163',138.0,1,1,2,1,1.0,0.0,1.06,0.93,1.1,0.9
164,'B164',138.0,1,1,2,1,1.0,0.0,1.06,0.93,1.1,0.9
165,'B165',138.0,1,1,2,1,1.0,0.0,1.06,0.93,1.1,0.9
166,'B166',138.0,1,1,2,1,1.0,0.0,1.06,0.93,1.1,0.9
167,'B167',138.0,1,1,2,1,1.0,0.0,1.06,0.93,1.1,0.9
168,'B168',138.0,1,1,2,1,1.0,0.0,1.06,0.93,1.1,0.9
169,'B169',138.0,1,1,2,1,1.0,0.0,1.06,0.93,1.1,0.9
170,'B170',138.0,1,1,2,1,1.0,0.0,1.06,0.93,1.1,0.9
171,'B171',138.0,1,1,2,1,1.0,0.0,1.06,0.93,1.1,0.9
172,'B172',138.0,1,1,2,1,1.0,0.0,1.06,0.93,1.1,0.9
173,'B173',138.0,1,1,2,1,1.0,0.0,1.06,0.93,1.1,0.9
174,'B174',138.0,1,1,2,1,1.0,0.0,1.06,0.93,1.1,0.9
175,'B175',138.0,1,1,2,1,1.0,0.0,1.06,0.93,1.1,0.9
176,'B176',138.0,1,1,2,1,1.0,0.0,1.06,0.93,1.1,0.9
177,'B177',138.0,1,1,2,1,1.0,0.0,1.06,0.93,1.1,0.9
178,'B178',138.0,1,1,2,1,1.0,0.0,1.06,0.93,1.1,0.9
179,'B179',138.0,2,1,2,1,1.0,0.0,1.06,0.93,1.1,0.9
180,'B180',138.0,1,1,2,1,1.0,0.0,1.06,0.93,1.1,0.9
181,'B181',138.0,1,1,2,1,1.0,0.0,1.06,0.93,1.1,0.9
182,'B182',138.0,1,1,2,1,1.0,0.0,1.06,0.93,1.1,0.9
183,'B183',138.0,1,1,2,1,1.0,0.0,1.06,0.93,1.1,0.9
184,'B184',138.0,1,1,2,1,1.0,0.0,1.06,0.93,1.1,0.9
185,'B185',138.0,1,1,2,1,1.0,0.0,1.06,0.93,1.1,0.9
186,'B186',138.0,1,1,2,1,1.0,0.0,1.06,0.93,1.1,0.9
187,'B187',138.0,1,1,2,1,1.0,0.0,1.06,0.93,1.1,0.9
188,'B188',138.0,1,1,2,1,1.0,0.0,1.06,0.93,1.1,0.9
189,'B189',138.0,1,1,2,1,1.0,0.0,1.06,0.93,1.1,0.9
190,'B190',138.0,2,1,2,1,1.0,0.0,1.06,0.93,1.1,0.9
191,'B191',138.0,1,1,2,1,1.0,0.0,1.06,0.93,1.1,0.9
192,'B192',138.0,1,1,2,1,1.0,0.0,1.06,0.93,1.1,0.9
193,'B193',138.0,1,1,2,1,1.0,0.0,1.06,0.93,1.1,0.9
194,'B194',138.0,1,1,2,1,1.0,0.0,1.06,0.93,1.1,0.9
195,'B195',138.0,1,1,2,1,1.0,0.0,1.06,0.93,1.1,0.9
196,'B196',138.0,1,1,2,1,1.0,0.0,1.06,0.93,1.1,0.9
197,'B197',138.0,1,1,2,1,1.0,0.0,1.06,0.93,1.1,0.9
198,'B198',138.0,1,1,2,1,1.0,0.0,1.06,0.93,1.1,0.9
199,'B199',138.0,1,1,2,1,1.0,0.0,1.06,0.93,1.1,0.9
200,'B200',138.0,1,1,2,1,1.0,0.0,1.06,0.93,1.1,0.9
201,'B201',138.0,1,1,2,1,1.0,0.0,1.06,0.93,1.1,0.9
202,'B202',138.0,1,1,2,1,1.0,0.0,1.06,0.93,1.1,0.9
203,'B203',138.0,1,1,2,1,1.0,0.0,1.06,0.93,1.1,0.9
204,'B204',138.0,1,1,2,1,1.0,0.0,1.06,0.93,1.1,0.9
205,'B205',138.0,1,1,2,1,1.0,0.0,1.06,0.93,1.1,0.9
...
0 / END OF BUS DATA BEGIN LOAD DATA
1,'1',1,1,11,15.89,6.689,0.0,0.0,0.0,0.0,1,1,0
2,'1',1,1,11,9.16,2.037,0.0,0.0,0.0,0.0,1,1,0
2,'2',1,1,11,0.114,0.527,0.0,0.0,0.0,0.0,1,1,0
2,'99',0,1,11,16.545,15.406,0.0,0.0,0.0,0.0,1,1,0
3,'1',1,1,11,9.118,2.585,0.0,0.0,0.0,0.0,1,1,0
5,'1',1,1,11,0.507,-1.313,0.0,0.0,0.0,0.0,1,1,0
7,'1',1,1,11,7.03,4.022,0.0,0.0,0.0,0.0,1,1,0
8,'1',1,1,11,2.192,0.372,0.0,0.0,0.0,0.0,1,1,0
9,'1',1,1,11,13.543,2.657,0.0,0.0,0.0,0.0,1,1,0
12,'1',1,1,11,10.07,6.617,0.0,0.0,0.0,0.0,1,1,0
13,'1',1,1,11,8.353,2.295,0.0,0.0,0.0,0.0,1,1,0
15,'1',1,1,11,13.43,3.463,0.0,0.0,0.0,0.0,1,1,0
20,'1',1,1,11,13.14,-4.177,0.0,0.0,0.0,0.0,1,1,0
21,'1',1,1,11,8.157,-1.096,0.0,0.0,0.0,0.0,1,1,0
28,'1',1,1,11,25.029,2.977,0.0,0.0,0.0,0.0,1,1,0
32,'1',1,1,11,7.206,1.21,0.0,0.0,0.0,0.0,1,1,0
34,'1',1,1,11,10.09,8.291,0.0,0.0,0.0,0.0,1,1,0
36,'99',0,1,11,108.412,-4.52,0.0,0.0,0.0,0.0,1,1,0
37,'1',1,1,11,-8.426,-3.35,0.0,0.0,0.0,0.0,1,1,0
39,'1',1,1,11,17.927,7.216,0.0,0.0,0.0,0.0,1,1,0
43,'1',1,1,11,2.068,0.465,0.0,0.0,0.0,0.0,1,1,0
44,'1',1,1,11,9.118,2.316,0.0,0.0,0.0,0.0,1,1,0
47,'1',1,1,11,10.866,-1.54,0.0,0.0,0.0,0.0,1,1,0
49,'1',1,1,11,10.09,8.291,0.0,0.0,0.0,0.0,1,1,0
51,'1',1,1,11,5.169,3.102,0.0,0.0,0.0,0.0,1,1,0
53,'1',1,1,11,7.216,0.558,0.0,0.0,0.0,0.0,1,1,0
54,'1',1,1,11,14.753,-1.117,0.0,0.0,0.0,0.0,1,1,0
56,'1',1,1,11,6.472,5.986,0.0,0.0,0.0,0.0,1,1,0
57,'1',1,1,11,7.413,-0.279,0.0,0.0,0.0,0.0,1,1,0
58,'99',0,1,11,10.106,10.951,0.0,0.0,0.0,0.0,1,1,0
59,'1',1,1,11,9.211,5.438,0.0,0.0,0.0,0.0,1,1,0
61,'1',1,1,11,3.877,-0.476,0.0,0.0,0.0,0.0,1,1,0
62,'1',1,1,11,8.054,-0.279,0.0,0.0,0.0,0.0,1,1,0
63,'1',1,1,11,30.519,0.093,0.0,0.0,0.0,0.0,1,1,0
64,'1',1,1,11,8.757,7.764,0.0,0.0,0.0,0.0,1,1,0
65,'1',1,1,11,0.941,0.61,0.0,0.0,0.0,0.0,1,1,0
68,'1',1,1,11,7.268,-0.269,0.0,0.0,0.0,0.0,1,1,0
70,'1',1,1,11,5.727,-3.587,0.0,0.0,0.0,0.0,1,1,0
71,'1',1,1,11,5.81,-1.809,0.0,0.0,0.0,0.0,1,1,0
71,'2',1,1,11,5.81,-1.809,0.0,0.0,0.0,0.0,1,1,0
72,'1',1,1,11,5.531,0.362,0.0,0.0,0.0,0.0,1,1,0
74,'1',1,1,11,-0.341,0.362,0.0,0.0,0.0,0.0,1,1,0
74,'2',1,1,11,7.206,4.559,0.0,0.0,0.0,0.0,1,1,0
75,'1',1,1,11,3.081,-2.502,0.0,0.0,0.0,0.0,1,1,0
76,'1',1,1,11,5.521,-0.279,0.0,0.0,0.0,0.0,1,1,0
77,'1',1,1,11,24.223,0.434,0.0,0.0,0.0,0.0,1,1,0
78,'1',1,1,11,14.422,3.556,0.0,0.0,0.0,0.0,1,1,0
80,'1',1,1,11,0.93,0.558,0.0,0.0,0.0,0.0,1,1,0
81,'99',0,1,11,30.844,22.078,0.0,0.0,0.0,0.0,1,1,0
82,'1',1,1,11,7.216,0.558,0.0,0.0,0.0,0.0,1,1,0
84,'1',1,1,11,8.953,0.569,0.0,0.0,0.0,0.0,1,1,0
85,'1',1,1,11,14.133,3.96,0.0,0.0,0.0,0.0,1,1,0
88,'1',1,1,11,-0.269,0.01,0.0,0.0,0.0,0.0,1,1,0
89,'1',1,1,11,20.211,0.021,0.0,0.0,0.0,0.0,1,1,0
92,'1',1,1,11,4.683,-0.279,0.0,0.0,0.0,0.0,1,1,0
94,'1',1,1,11,2.243,2.595,0.0,0.0,0.0,0.0,1,1,0
96,'99',1,1,4,22.909,40.687,0.0,0.0,0.0,0.0,1,1,0
97,'99',1,1,4,19.468,26.162,0.0,0.0,0.0,0.0,1,1,0
99,'1',1,1,4,7.237,18.609,0.0,0.0,0.0,0.0,1,1,0
100,'1',1,1,4,8.271,21.711,0.0,0.0,0.0,0.0,1,1,0
101,'99',1,1,4,106.24,20.25,0.0,0.0,0.0,0.0,1,1,0
102,'99',0,1,4,1.156,-45.892,0.0,0.0,0.0,0.0,1,1,0
105,'1',1,1,4,4.425,1.633,0.0,0.0,0.0,0.0,1,1,0
106,'1',1,1,4,5.665,2.378,0.0,0.0,0.0,0.0,1,1,0
108,'1',1,1,4,7.961,2.647,0.0,0.0,0.0,0.0,1,1,0
108,'99',1,1,4,2.134,-16.696,0.0,0.0,0.0,0.0,1,1,0
109,'1',1,1,4,8.508,2.233,0.0,0.0,0.0,0.0,1,1,0
110,'1',1,1,4,1.933,0.827,0.0,0.0,0.0,0.0,1,1,0
111,'1',1,1,4,3.453,1.468,0.0,0.0,0.0,0.0,1,1,0
112,'1',1,1,4,13.977,5.2,0.0,0.0,0.0,0.0,1,1,0
115,'1',1,1,4,4.973,1.789,0.0,0.0,0.0,0.0,1,1,0
116,'1',1,1,4,24.409,21.814,0.0,0.0,0.0,0.0,1,1,0
118,'1',1,1,4,5.645,2.388,0.0,0.0,0.0,0.0,1,1,0
120,'1',1,1,4,9.945,3.246,0.0,0.0,0.0,0.0,1,1,0
121,'1',1,1,4,0.0,0.0,0.0,0.0,0.0,0.0,1,1,0
128,'1',1,1,4,1.034,0.393,0.0,0.0,0.0,0.0,1,1,0
129,'1',1,1,4,4.642,3.215,0.0,0.0,0.0,0.0,1,1,0
131,'1',1,1,4,82.707,40.32,0.0,0.0,0.0,0.0,1,1,0
132,'1',1,1,4,5.407,1.871,0.0,0.0,0.0,0.0,1,1,0
133,'1',1,1,4,1.985,0.62,0.0,0.0,0.0,0.0,1,1,0
134,'1',1,1,4,54.793,25.867,0.0,0.0,0.0,0.0,1,1,0
135,'1',1,1,4,6.203,2.202,0.0,0.0,0.0,0.0,1,1,0
136,'1',1,1,4,2.874,0.93,0.0,0.0,0.0,0.0,1,1,0
137,'1',1,1,4,10.928,3.629,0.0,0.0,0.0,0.0,1,1,0
137,'99',0,1,4,28.183,-12.764,0.0,0.0,0.0,0.0,1,1,0
138,'1',1,1,4,0.445,0.103,0.0,0.0,0.0,0.0,1,1,0
140,'1',1,1,4,2.874,1.716,0.0,0.0,0.0,0.0,1,1,0
141,'1',1,1,4,6.027,0.693,0.0,0.0,0.0,0.0,1,1,0
142,'1',1,1,4,8.395,2.853,0.0,0.0,0.0,0.0,1,1,0
143,'99',0,1,4,0.426,1.249,0.0,0.0,0.0,0.0,1,1,0
145,'99',0,1,4,53.244,16.969,0.0,0.0,0.0,0.0,1,1,0
146,'1',1,1,4,1.654,0.414,0.0,0.0,0.0,0.0,1,1,0
147,'1',1,1,4,1.106,0.507,0.0,0.0,0.0,0.0,1,1,0
148,'1',1,1,4,6.751,2.884,0.0,0.0,0.0,0.0,1,1,0
149,'99',0,1,4,9.227,-8.412,0.0,0.0,0.0,0.0,1,1,0
150,'1',1,1,4,4.973,1.561,0.0,0.0,0.0,0.0,1,1,0
151,'1',1,1,4,19.55,31.232,0.0,0.0,0.0,0.0,1,1,0
152,'1',1,1,4,7.237,14.474,0.0,0.0,0.0,0.0,1,1,0
153,'1',1,1,4,9.398,3.164,0.0,0.0,0.0,0.0,1,1,0
157,'1',1,1,4,3.039,1.292,0.0,0.0,0.0,0.0,1,1,0
159,'1',1,1,4,15.042,0.569,0.0,0.0,0.0,0.0,1,1,0
160,'1',1,1,4,11.61,2.75,0.0,0.0,0.0,0.0,1,1,0
161,'1',1,1,4,6.596,2.864,0.0,0.0,0.0,0.0,1,1,0
162,'1',1,1,4,8.591,3.805,0.0,0.0,0.0,0.0,1,1,0
163,'1',1,1,4,0.879,0.083,0.0,0.0,0.0,0.0,1,1,0
165,'1',1,1,4,0.682,0.403,0.0,0.0,0.0,0.0,1,1,0
166,'1',1,1,4,0.548,0.32,0.0,0.0,0.0,0.0,1,1,0
168,'1',1,1,4,10.721,3.577,0.0,0.0,0.0,0.0,1,1,0
169,'1',1,1,4,2.657,0.961,0.0,0.0,0.0,0.0,1,1,0
171,'1',1,1,4,5.531,0.786,0.0,0.0,0.0,0.0,1,1,0
173,'1',1,1,4,7.506,2.802,0.0,0.0,0.0,0.0,1,1,0
175,'1',1,1,4,3.091,1.179,0.0,0.0,0.0,0.0,1,1,0
176,'1',1,1,4,6.637,2.357,0.0,0.0,0.0,0.0,1,1,0
179,'1',1,1,4,6.193,2.13,0.0,0.0,0.0,0.0,1,1,0
181,'1',1,1,4,4.694,1.954,0.0,0.0,0.0,0.0,1,1,0
182,'1',1,1,4,4.425,1.851,0.0,0.0,0.0,0.0,1,1,0
184,'1',1,1,4,3.763,1.272,0.0,0.0,0.0,0.0,1,1,0
185,'1',1,1,4,4.414,1.602,0.0,0.0,0.0,0.0,1,1,0
188,'1',1,1,4,0.775,0.383,0.0,0.0,0.0,0.0,1,1,0
189,'1',1,1,4,1.323,0.6,0.0,0.0,0.0,0.0,1,1,0
191,'1',1,1,4,4.756,1.789,0.0,0.0,0.0,0.0,1,1,0
193,'1',1,1,4,4.756,1.685,0.0,0.0,0.0,0.0,1,1,0
194,'1',1,1,4,12.602,4.094,0.0,0.0,0.0,0.0,1,1,0
195,'99',0,1,4,18.155,5.789,0.0,0.0,0.0,0.0,1,1,0
196,'1',1,1,4,0.0,0.0,0.0,0.0,0.0,0.0,1,1,0
198,'1',1,1,4,3.98,1.427,0.0,0.0,0.0,0.0,1,1,0
200,'1',1,1,4,5.49,1.53,0.0,0.0,0.0,0.0,1,1,0
201,'1',1,1,4,7.671,2.078,0.0,0.0,0.0,0.0,1,1,0
202,'1',1,1,4,2.223,0.579,0.0,0.0,0.0,0.0,1,1,0
204,'1',1,1,4,12.22,4.818,0.0,0.0,0.0,0.0,1,1,0
205,'1',1,1,4,11.589,5.004,0.0,0.0,0.0,0.0,1,1,0
206,'1',1,1,4,4.27,1.758,0.0,0.0,0.0,0.0,1,1,0
207,'1',1,1,4,2.657,1.075,0.0,0.0,0.0,0.0,1,1,0
208,'99',1,1,4,35.531,-1.745,0.0,0.0,0.0,0.0,1,1,0
209,'1',1,1,4,0.548,0.31,0.0,0.0,0.0,0.0,1,1,0
213,'99',1,1,9,49.381,17.185,0.0,0.0,0.0,0.0,1,1,0
214,'99',1,1,9,282.273,22.916,0.0,0.0,0.0,0.0,1,1,0
216,'99',1,1,9,80.016,46.574,0.0,0.0,0.0,0.0,1,1,0
220,'99',0,1,9,659.876,-1.015,0.0,0.0,0.0,0.0,1,1,0
221,'1',1,1,9,33.248,53.832,0.0,0.0,0.0,0.0,1,1,0
222,'1',1,1,9,47.929,95.185,0.0,0.0,0.0,0.0,1,1,0
223,'1',1,1,9,62.03,124.06,0.0,0.0,0.0,0.0,1,1,0
224,'1',1,1,9,62.03,124.06,0.0,0.0,0.0,0.0,1,1,0
224,'99',1,1,9,1038.571,170.32,0.0,0.0,0.0,0.0,1,1,0
225,'99',1,1,9,386.699,87.448,0.0,0.0,0.0,0.0,1,1,0
226,'99',1,1,9,73.718,60.743,0.0,0.0,0.0,0.0,1,1,0
227,'99',1,1,9,70.365,-56.181,0.0,0.0,0.0,0.0,1,1,0
228,'1',1,1,9,40.113,-2.791,0.0,0.0,0.0,0.0,1,1,0
229,'99',1,1,9,14.52,26.4,0.0,0.0,0.0,0.0,1,1,0
231,'99',1,1,9,155.169,57.484,0.0,0.0,0.0,0.0,1,1,0
234,'99',1,1,9,7.686,39.699,0.0,0.0,0.0,0.0,1,1,0
235,'99',1,1,9,51.202,41.775,0.0,0.0,0.0,0.0,1,1,0
236,'1',1,1,9,7.961,20.677,0.0,0.0,0.0,0.0,1,1,0
236,'99',1,1,9,321.303,-13.226,0.0,0.0,0.0,0.0,1,1,0
237,'1',1,1,9,3.98,1.034,0.0,0.0,0.0,0.0,1,1,0
238,'1',1,1,9,2.347,1.148,0.0,0.0,0.0,0.0,1,1,0
239,'1',1,1,9,1.633,0.414,0.0,0.0,0.0,0.0,1,1,0
240,'1',1,1,9,4.59,1.137,0.0,0.0,0.0,0.0,1,1,0
241,'1',1,1,9,4.797,0.414,0.0,0.0,0.0,0.0,1,1,0
241,'99',1,1,9,3.681,-0.287,0.0,0.0,0.0,0.0,1,1,0
242,'1',1,1,9,14.36,8.023,0.0,0.0,0.0,0.0,1,1,0
243,'1',1,1,9,20.18,11.61,0.0,0.0,0.0,0.0,1,1,0
245,'99',1,1,9,82.679,9.498,0.0,0.0,0.0,0.0,1,1,0
246,'1',1,1,9,20.677,41.353,0.0,0.0,0.0,0.0,1,1,0
247,'1',1,1,9,21.121,21.318,0.0,0.0,0.0,0.0,1,1,0
248,'1',1,1,9,37.735,12.416,0.0,0.0,0.0,0.0,1,1,0
249,'99',1,1,9,85.886,11.2,0.0,0.0,0.0,0.0,1,1,0
250,'1',1,1,9,0.155,0.693,0.0,0.0,0.0,0.0,1,1,0
251,'1',1,1,9,19.147,12.664,0.0,0.0,0.0,0.0,1,1,0
252,'1',1,1,9,14.567,6.337,0.0,0.0,0.0,0.0,1,1,0
253,'1',1,1,9,8.974,1.034,0.0,0.0,0.0,0.0,1,1,0
253,'99',1,1,9,8.178,-5.401,0.0,0.0,0.0,0.0,1,1,0
254,'99',1,1,9,72.654,21.183,0.0,0.0,0.0,0.0,1,1,0
256,'1',1,1,9,5.81,1.241,0.0,0.0,0.0,0.0,1,1,0
257,'1',1,1,9,5.81,1.344,0.0,0.0,0.0,0.0,1,1,0
257,'99',1,1,9,23.067,14.77,0.0,0.0,0.0,0.0,1,1,0
258,'1',1,1,9,3.67,0.31,0.0,0.0,0.0,0.0,1,1,0
259,'1',1,1,9,2.45,0.62,0.0,0.0,0.0,0.0,1,1,0
260,'1',1,1,9,3.67,0.62,0.0,0.0,0.0,0.0,1,1,0
261,'1',1,1,9,2.14,0.414,0.0,0.0,0.0,0.0,1,1,0
262,'99',1,1,9,2.652,-8.773,0.0,0.0,0.0,0.0,1,1,0
263,'1',1,1,9,1.22,0.31,0.0,0.0,0.0,0.0,1,1,0
264,'1',1,1,9,0.414,0.103,0.0,0.0,0.0,0.0,1,1,0
266,'1',1,1,5,3.07,3.412,0.0,0.0,0.0,0.0,1,1,0
267,'1',1,1,5,15.187,7.227,0.0,0.0,0.0,0.0,1,1,0
269,'1',1,1,5,-8.87,1.571,0.0,0.0,0.0,0.0,1,1,0
270,'1',1,1,5,6.606,3.122,0.0,0.0,0.0,0.0,1,1,0
272,'1',1,1,5,31.708,6.007,0.0,0.0,0.0,0.0,1,1,0
273,'1',1,1,5,3.887,2.853,0.0,0.0,0.0,0.0,1,1,0
274,'1',1,1,5,16.055,4.311,0.0,0.0,0.0,0.0,1,1,0
277,'99',1,1,5,166.915,81.707,0.0,0.0,0.0,0.0,1,1,0
279,'1',1,1,5,7.64,3.184,0.0,0.0,0.0,0.0,1,1,0
281,'1',1,1,5,2.109,3.122,0.0,0.0,0.0,0.0,1,1,0
284,'1',1,1,5,6.151,1.995,0.0,0.0,0.0,0.0,1,1,0
284,'99',1,1,5,6.864,5.72,0.0,0.0,0.0,0.0,1,1,0
285,'1',1,1,5,2.223,2.057,0.0,0.0,0.0,0.0,1,1,0
286,'1',1,1,5,1.468,2.926,0.0,0.0,0.0,0.0,1,1,0
287,'1',1,1,5,1.406,2.74,0.0,0.0,0.0,0.0,1,1,0
289,'1',1,1,5,6.224,3.35,0.0,0.0,0.0,0.0,1,1,0
289,'99',1,1,5,2.2,-2.885,0.0,0.0,0.0,0.0,1,1,0
...
0 / END OF LOAD DATA BEGIN FIXED SHUNT DATA
2,'1',1,0.0,15.498
23,'1',1,0.0,-120.31
36,'1',1,0.0,-4.438
58,'1',1,0.0,10.592
81,'1',1,0.0,21.502
98,'1',1,0.0,-24.285
100,'1',1,0.0,4.571
102,'1',1,0.0,-43.607
133,'1',1,0.0,-1.321
137,'1',1,0.0,-13.204
143,'1',1,0.0,1.197
145,'1',1,0.0,16.36
149,'1',1,0.0,-8.091
156,'1',1,0.0,40.892
195,'1',1,0.0,5.562
220,'1',1,0.0,-1.094
304,'1',1,0.0,2.218
348,'1',1,0.0,5.534
357,'1',1,0.0,-30.025
363,'1',1,0.0,24.399
364,'1',1,0.0,-71.188
367,'1',1,0.0,60.608
376,'1',1,0.0,-9.534
380,'1',1,0.0,11.017
386,'1',1,0.0,-5.842
390,'1',1,0.0,12.518
428,'1',1,0.0,-7.317
442,'1',1,0.0,-7.663
443,'1',1,0.0,12.284
444,'1',1,0.0,19.281
460,'1',1,0.0,32.216
525,'1',1,0.0,100.748
576,'1',1,0.0,-63.285
591,'1',1,0.0,22.609
595,'1',1,0.0,6.261
623,'1',1,0.0,-2.498
624,'1',1,0.0,6.887
631,'1',1,0.0,30.406
639,'1',1,0.0,-66.624
640,'1',1,0.0,-75.05
642,'1',1,0.0,88.396
653,'1',1,0.0,26.664
684,'1',1,0.0,0.059
696,'1',1,0.0,-1.903
697,'1',1,0.0,-37.362
743,'1',1,0.0,-1.15
748,'1',1,0.0,-19.101
791,'1',1,0.0,0.336
794,'1',1,0.0,-2.22
0 / END OF FIXED SHUNT DATA BEGIN GENERATOR DATA
6,'1',0.0,0.0,33.333,-33.333,0.9534,0,100.0,0.0,1.0,0.0,0.0,1.0,0,100.0,63.0,28.5,1,1.0,0,1.0,0,1.0,0,1.0,0,1.0
23,'98',0.0,0.0,183.0,-183.0,1.01,0,100.0,0.0,1.0,0.0,0.0,1.0,1,100.0,526.316,2.0,1,1.0,0,1.0,0,1.0,0,1.0,0,1.0
25,'1',0.0,0.0,22.5,-22.5,0.9534,0,67.5,0.0,0.165,0.0,0.0,1.0,0,100.0,280.0,2.0,1,1.0,0,1.0,0,1.0,0,1.0,0,1.0
25,'2',0.0,0.0,22.5,-22.5,0.9534,0,67.5,0.0,0.165,0.0,0.0,1.0,0,100.0,60.43,14.25,1,1.0,0,1.0,0,1.0,0,1.0,0,1.0
31,'99',0.0,0.0,160.0,-160.0,1.0099,0,100.0,0.0,1.0,0.0,0.0,1.0,1,100.0,136.038,34.685,1,1.0,0,1.0,0,1.0,0,1.0,0,1.0
33,'1',0.0,0.0,19.29,-19.29,1.0087,0,57.87,0.0,0.148,0.0047,0.0939,1.0,0,100.0,46.2,11.4,1,1.0,0,1.0,0,1.0,0,1.0,0,1.0
35,'1',0.0,0.0,33.127,-33.127,1.0101,0,99.38,0.0,0.178,0.0045,0.0928,1.0,0,100.0,288.0,2.0,1,1.0,0,1.0,0,1.0,0,1.0,0,1.0
35,'2',0.0,0.0,23.05,-23.05,1.0101,0,69.15,0.0,0.135,0.002,0.0585,1.0,0,100.0,300.0,2.0,1,1.0,0,1.0,0,1.0,0,1.0,0,1.0
35,'3',0.0,0.0,16.237,-16.237,1.0101,0,48.71,0.0,0.193,0.0016,0.0541,1.0,0,100.0,40.14,25.14,1,1.0,0,1.0,0,1.0,0,1.0,0,1.0
43,'99',0.0,0.0,160.0,-160.0,1.0131,0,100.0,0.0,1.0,0.0,0.0,1.0,1,100.0,301.053,1.129,1,1.0,0,1.0,0,1.0,0,1.0,0,1.0
45,'1',0.0,0.0,67.75,-67.75,1.0087,0,203.25,0.0,0.226,0.0094,0.1876,1.0,0,100.0,173.25,50.54,1,1.0,0,1.0,0,1.0,0,1.0,0,1.0
46,'99',0.0,0.0,160.0,-160.0,1.0048,0,100.0,0.0,1.0,0.0,0.0,1.0,1,100.0,55.716,11.516,1,1.0,0,1.0,0,1.0,0,1.0,0,1.0
47,'99',0.0,0.0,160.0,-160.0,1.0131,0,100.0,0.0,1.0,0.0,0.0,1.0,1,100.0,68.734,15.271,1,1.0,0,1.0,0,1.0,0,1.0,0,1.0
52,'99',0.0,0.0,160.0,-160.0,1.0051,0,100.0,0.0,1.0,0.0,0.0,1.0,1,100.0,111.717,27.67,1,1.0,0,1.0,0,1.0,0,1.0,0,1.0
55,'99',0.0,0.0,160.0,-160.0,1.0108,0,100.0,0.0,1.0,0.0,0.0,1.0,1,100.0,136.0,34.674,1,1.0,0,1.0,0,1.0,0,1.0,0,1.0
59,'1',0.0,0.0,66.11,-103.578,1.04,0,100.0,0.0,1.0,0.0,0.0,1.0,1,100.0,297.895,3.833,1,1.0,0,1.0,0,1.0,0,1.0,0,1.0
65,'1',0.0,0.0,92.232,-2.97,1.0166,0,27.8,0.0,0.32,0.0,0.0,1.0,1,100.0,265.263,7.393,1,1.0,0,1.0,0,1.0,0,1.0,0,1.0
65,'2',0.0,0.0,9.267,-9.267,1.0166,0,27.8,0.0,0.32,0.0,0.0,1.0,0,100.0,25.2,4.75,1,1.0,0,1.0,0,1.0,0,1.0,0,1.0
71,'99',0.0,0.0,160.0,-160.0,1.0159,0,100.0,0.0,1.0,0.0,0.0,1.0,1,100.0,67.904,15.032,1,1.0,0,1.0,0,1.0,0,1.0,0,1.0
80,'1',0.0,0.0,9.267,-9.267,1.0166,0,27.8,0.0,0.32,0.0,0.0,1.0,0,100.0,26.25,4.75,1,1.0,0,1.0,0,1.0,0,1.0,0,1.0
80,'2',0.0,0.0,9.267,-9.267,1.0166,0,27.8,0.0,0.32,0.0,0.0,1.0,0,100.0,25.2,2.0,1,1.0,0,1.0,0,1.0,0,1.0,0,1.0
86,'99',0.0,0.0,160.0,-160.0,1.0107,0,100.0,0.0,1.0,0.0,0.0,1.0,1,100.0,83.388,19.498,1,1.0,0,1.0,0,1.0,0,1.0,0,1.0
87,'1',0.0,0.0,95.526,-95.526,1.0051,0,100.0,0.0,1.0,0.0,0.0,1.0,0,100.0,274.737,2.0,1,1.0,0,1.0,0,1.0,0,1.0,0,1.0
90,'99',0.0,0.0,160.0,-160.0,1.0078,0,100.0,0.0,1.0,0.0,0.0,1.0,1,100.0,59.599,12.637,1,1.0,0,1.0,0,1.0,0,1.0,0,1.0
93,'99',0.0,0.0,160.0,-160.0,1.0161,0,100.0,0.0,1.0,0.0,0.0,1.0,1,100.0,265.263,2.965,1,1.0,0,1.0,0,1.0,0,1.0,0,1.0
98,'99',0.0,0.0,33.333,-33.333,1.01935,0,100.0,0.0,1.0,0.0,0.0,1.0,0,100.0,65.268,50.268,1,1.0,0,1.0,0,1.0,0,1.0,0,1.0
99,'1',0.0,0.0,52.613,-1.0,1.02455,0,163.45,0.0,0.18,0.0,0.0,1.0,0,100.0,151.316,70.0,1,1.0,0,1.0,0,1.0,0,1.0,0,1.0
100,'1',0.0,0.0,52.613,-1.0,1.02455,0,148.19,0.0,0.18,0.0,0.0,1.0,0,100.0,151.316,70.0,1,1.0,0,1.0,0,1.0,0,1.0,0,1.0
100,'99',0.0,0.0,33.333,-33.333,1.02455,0,100.0,0.0,1.0,0.0,0.0,1.0,0,100.0,28.104,13.104,1,1.0,0,1.0,0,1.0,0,1.0,0,1.0
105,'97',0.0,0.0,43.92,-43.92,1.0,0,100.0,0.0,1.0,0.0,0.0,1.0,1,100.0,126.316,5.0,1,1.0,0,1.0,0,1.0,0,1.0,0,1.0
116,'1',0.0,0.0,50.325,-40.0,1.02455,0,147.7,0.0,0.18,0.0,0.0,1.0,0,100.0,144.737,32.0,1,1.0,0,1.0,0,1.0,0,1.0,0,1.0
117,'1',0.0,0.0,37.667,-37.667,1.02455,0,113.0,0.0,0.18,0.0,0.0,1.0,0,100.0,113.0,32.0,1,1.0,0,1.0,0,1.0,0,1.0,0,1.0
121,'1',0.0,0.0,45.0,-45.0,1.02455,0,135.0,0.0,0.18,0.0,0.0,1.0,0,100.0,135.0,35.0,1,1.0,0,1.0,0,1.0,0,1.0,0,1.0
131,'1',0.0,0.0,8.333,-8.333,1.02182,0,25.0,0.0,0.2,0.0,0.0,1.0,0,100.0,25.0,10.0,1,1.0,0,1.0,0,1.0,0,1.0,0,1.0
131,'2',0.0,0.0,8.333,-8.333,1.02182,0,25.0,0.0,0.2,0.0,0.0,1.0,0,100.0,25.0,10.0,1,1.0,0,1.0,0,1.0,0,1.0,0,1.0
131,'3',0.0,0.0,11.438,-11.438,1.02182,0,30.0,0.0,0.2,0.0,0.0,1.0,0,100.0,32.895,10.0,1,1.0,0,1.0,0,1.0,0,1.0,0,1.0
131,'4',0.0,0.0,9.15,-9.15,1.02182,0,25.0,0.0,0.2,0.0,0.0,1.0,0,100.0,26.316,10.0,1,1.0,0,1.0,0,1.0,0,1.0,0,1.0
133,'99',0.0,0.0,33.333,-33.333,1.0226,0,100.0,0.0,1.0,0.0,0.0,1.0,0,100.0,295.0,2.396,1,1.0,0,1.0,0,1.0,0,1.0,0,1.0
134,'1',0.0,0.0,16.667,-16.667,1.0,0,50.0,0.0,0.2,0.0,0.0,1.0,1,100.0,52.632,5.0,1,1.0,0,1.0,0,1.0,0,1.0,0,1.0
151,'1',0.0,0.0,43.92,-1.0,1.02455,0,120.0,0.0,0.18,0.0,0.0,1.0,0,100.0,126.316,70.0,1,1.0,0,1.0,0,1.0,0,1.0,0,1.0
151,'2',0.0,0.0,43.92,-1.0,1.02455,0,120.0,0.0,0.18,0.0,0.0,1.0,1,100.0,126.316,58.333,1,1.0,0,1.0,0,1.0,0,1.0,0,1.0
151,'97',0.0,0.0,43.92,-43.92,1.02455,0,100.0,0.0,1.0,0.0,0.0,1.0,1,100.0,126.316,5.0,1,1.0,0,1.0,0,1.0,0,1.0,0,1.0
152,'1',0.0,0.0,54.897,-1.0,1.02455,0,144.0,0.0,0.18,0.0,0.0,1.0,1,100.0,157.887,79.0,1,1.0,0,1.0,0,1.0,0,1.0,0,1.0
152,'2',0.0,0.0,36.667,-36.667,1.02455,0,110.0,0.0,0.18,0.0,0.0,1.0,0,100.0,110.0,79.0,1,1.0,0,1.0,0,1.0,0,1.0,0,1.0
156,'99',0.0,0.0,33.333,-33.333,1.02608,0,100.0,0.0,1.0,0.0,0.0,1.0,0,100.0,62.466,47.466,1,1.0,0,1.0,0,1.0,0,1.0,0,1.0
159,'99',0.0,0.0,160.0,-160.0,1.0193,0,100.0,0.0,1.0,0.0,0.0,1.0,1,100.0,308.421,0.037,1,1.0,0,1.0,0,1.0,0,1.0,0,1.0
179,'97',0.0,0.0,43.92,-43.92,1.0,0,100.0,0.0,1.0,0.0,0.0,1.0,1,100.0,126.316,10.0,1,1.0,0,1.0,0,1.0,0,1.0,0,1.0
190,'99',0.0,0.0,160.0,-160.0,1.033,0,100.0,0.0,1.0,0.0,0.0,1.0,1,100.0,83.856,18.133,1,1.0,0,1.0,0,1.0,0,1.0,0,1.0
221,'1',0.0,0.0,123.333,-123.333,1.02864,0,370.0,0.0,0.21,0.0,0.0,1.0,0,100.0,370.0,240.0,1,1.0,0,1.0,0,1.0,0,1.0,0,1.0
221,'2',0.0,0.0,123.333,-123.333,1.02864,0,370.0,0.0,0.21,0.0,0.0,1.0,0,100.0,370.0,240.0,1,1.0,0,1.0,0,1.0,0,1.0,0,1.0
221,'3',0.0,0.0,157.837,-23.75,1.02864,0,449.45,0.0,0.21,0.0,0.0,1.0,0,100.0,453.947,240.0,1,1.0,0,1.0,0,1.0,0,1.0,0,1.0
222,'1',0.0,0.0,169.275,-19.0,1.02864,0,455.56,0.0,0.21,0.0,0.0,1.0,1,100.0,486.842,240.0,1,1.0,0,1.0,0,1.0,0,1.0,0,1.0
222,'2',0.0,0.0,135.42,-19.0,1.02864,0,397.31,0.0,0.21,0.0,0.0,1.0,0,100.0,389.474,240.0,1,1.0,0,1.0,0,1.0,0,1.0,0,1.0
223,'1',0.0,0.0,190.0,-19.0,1.012,0,616.84,0.0,0.235,0.0,0.0,1.0,1,100.0,1148.453,50.876,1,1.0,0,1.0,0,1.0,0,1.0,0,1.0
223,'2',0.0,0.0,190.0,-19.0,1.012,0,616.84,0.0,0.235,0.0,0.0,1.0,1,100.0,1148.453,50.876,1,1.0,0,1.0,0,1.0,0,1.0,0,1.0
223,'3',0.0,0.0,190.0,-19.0,1.012,0,616.84,0.0,0.235,0.0,0.0,1.0,1,100.0,1148.453,50.876,1,1.0,0,1.0,0,1.0,0,1.0,0,1.0
224,'1',0.0,0.0,169.275,-19.0,1.012,0,451.84,0.0,0.21,0.0,0.0,1.0,0,100.0,486.842,240.0,1,1.0,0,1.0,0,1.0,0,1.0,0,1.0
224,'2',0.0,0.0,155.55,-19.0,1.012,0,416.51,0.0,0.21,0.0,0.0,1.0,1,100.0,447.368,240.0,1,1.0,0,1.0,0,1.0,0,1.0,0,1.0
224,'3',0.0,0.0,155.55,-19.0,1.012,0,416.51,0.0,0.21,0.0,0.0,1.0,1,100.0,447.368,240.0,1,1.0,0,1.0,0,1.0,0,1.0,0,1.0
233,'99',0.0,0.0,160.0,-160.0,1.0041,0,100.0,0.0,1.0,0.0,0.0,1.0,1,100.0,186.779,43.1,1,1.0,0,1.0,0,1.0,0,1.0,0,1.0
236,'1',0.0,0.0,50.325,-15.0,1.02045,0,166.81,0.0,0.18,0.0,0.0,1.0,0,100.0,144.737,91.667,1,1.0,0,1.0,0,1.0,0,1.0,0,1.0
236,'98',0.0,0.0,183.0,-183.0,1.02045,0,120.0,0.0,0.18,0.0,0.0,1.0,1,100.0,526.316,2.0,1,1.0,0,1.0,0,1.0,0,1.0,0,1.0
246,'1',0.0,0.0,160.125,-19.0,1.01364,0,477.9,0.0,0.21,0.0,0.0,1.0,1,100.0,460.526,240.0,1,1.0,0,1.0,0,1.0,0,1.0,0,1.0
250,'1',0.0,0.0,10.98,-10.98,1.02182,0,30.0,0.0,0.2,0.0,0.0,1.0,0,100.0,31.579,2.0,1,1.0,0,1.0,0,1.0,0,1.0,0,1.0
256,'1',0.0,0.0,92.964,-92.964,1.02455,0,0.43,0.0,0.2,0.0,0.0,1.0,1,100.0,267.368,2.0,1,1.0,0,1.0,0,1.0,0,1.0,0,1.0
267,'99',0.0,0.0,160.0,-160.0,1.01,0,100.0,0.0,1.0,0.0,0.0,1.0,1,100.0,309.474,2.626,1,1.0,0,1.0,0,1.0,0,1.0,0,1.0
268,'99',0.0,0.0,160.0,-160.0,1.018,0,100.0,0.0,1.0,0.0,0.0,1.0,1,100.0,422.316,97.451,1,1.0,0,1.0,0,1.0,0,1.0,0,1.0
272,'99',0.0,0.0,160.0,-160.0,1.0194,0,100.0,0.0,1.0,0.0,0.0,1.0,1,100.0,78.395,15.257,1,1.0,0,1.0,0,1.0,0,1.0,0,1.0
275,'99',0.0,0.0,160.0,-160.0,1.0185,0,100.0,0.0,1.0,0.0,0.0,1.0,1,100.0,76.902,1.461,1,1.0,0,1.0,0,1.0,0,1.0,0,1.0
281,'99',0.0,0.0,160.0,-160.0,1.0102,0,100.0,0.0,1.0,0.0,0.0,1.0,1,100.0,286.316,1.782,1,1.0,0,1.0,0,1.0,0,1.0,0,1.0
293,'1',0.0,0.0,76.667,-76.667,1.0259,0,230.0,0.0023,0.168,0.0,0.0,1.025,0,100.0,173.25,117.8,1,1.0,0,1.0,0,1.0,0,1.0,0,1.0
296,'1',0.0,0.0,76.667,-76.667,1.0259,0,230.0,0.0023,0.168,0.0,0.0,1.025,0,100.0,173.25,117.8,1,1.0,0,1.0,0,1.0,0,1.0,0,1.0
298,'99',0.0,0.0,160.0,-160.0,1.0278,0,100.0,0.0,1.0,0.0,0.0,1.0,1,100.0,29.593,3.981,1,1.0,0,1.0,0,1.0,0,1.0,0,1.0
303,'97',0.0,0.0,43.92,-43.92,1.0,0,100.0,0.0,1.0,0.0,0.0,1.0,1,100.0,126.316,5.0,1,1.0,0,1.0,0,1.0,0,1.0,0,1.0
304,'99',0.0,0.0,33.333,-33.333,1.01312,0,100.0,0.0,1.0,0.0,0.0,1.0,0,100.0,44.434,29.434,1,1.0,0,1.0,0,1.0,0,1.0,0,1.0
305,'1',0.0,0.0,76.667,-76.667,1.0259,0,230.0,0.0022,0.1728,0.0,0.0,1.025,0,100.0,173.25,117.8,1,1.0,0,1.0,0,1.0,0,1.0,0,1.0
307,'99',0.0,0.0,160.0,-160.0,1.0064,0,100.0,0.0,1.0,0.0,0.0,1.0,1,100.0,38.823,6.644,1,1.0,0,1.0,0,1.0,0,1.0,0,1.0
309,'1',0.0,0.0,147.09,-81.3,1.01,0,300.0,0.0,0.207,0.0,0.0,1.0,0,100.0,519.615,198.808,1,1.0,0,1.0,0,1.0,0,1.0,0,1.0
326,'1',0.0,0.0,76.667,-76.667,1.0259,0,230.0,0.0022,0.1728,0.0,0.0,1.025,0,100.0,173.25,117.8,1,1.0,0,1.0,0,1.0,0,1.0,0,1.0
335,'1',0.0,0.0,76.667,-76.667,1.0259,0,230.0,0.0022,0.1728,0.0,0.0,1.025,0,100.0,173.25,117.8,1,1.0,0,1.0,0,1.0,0,1.0,0,1.0
337,'99',0.0,0.0,160.0,-160.0,1.01,0,100.0,0.0,1.0,0.0,0.0,1.0,1,100.0,272.632,1.907,1,1.0,0,1.0,0,1.0,0,1.0,0,1.0
342,'1',0.0,0.0,99.918,-99.918,1.03,0,100.0,0.0,1.0,0.0,0.0,1.0,0,100.0,287.368,2.0,1,1.0,0,1.0,0,1.0,0,1.0,0,1.0
345,'99',0.0,0.0,160.0,-160.0,1.0278,0,100.0,0.0,1.0,0.0,0.0,1.0,1,100.0,28.717,3.729,1,1.0,0,1.0,0,1.0,0,1.0,0,1.0
350,'99',0.0,0.0,160.0,-160.0,1.0018,0,100.0,0.0,1.0,0.0,0.0,1.0,1,100.0,134.156,34.142,1,1.0,0,1.0,0,1.0,0,1.0,0,1.0
352,'1',0.0,0.0,302.333,-302.333,1.0259,0,907.0,0.0038,0.22,0.0,0.0,1.0,0,100.0,254.0,2.0,1,1.0,0,1.0,0,1.0,0,1.0,0,1.0
353,'99',0.0,0.0,160.0,-160.0,1.0063,0,100.0,0.0,1.0,0.0,0.0,1.0,1,100.0,124.492,25.542,1,1.0,0,1.0,0,1.0,0,1.0,0,1.0
357,'99',0.0,0.0,33.333,-33.333,1.01,0,100.0,0.0,1.0,0.0,0.0,1.0,0,100.0,137.965,122.965,1,1.0,0,1.0,0,1.0,0,1.0,0,1.0
361,'99',0.0,0.0,160.0,-160.0,1.01,0,100.0,0.0,1.0,0.0,0.0,1.0,1,100.0,526.43,129.035,1,1.0,0,1.0,0,1.0,0,1.0,0,1.0
364,'99',0.0,0.0,33.333,-33.333,1.00286,0,100.0,0.0,1.0,0.0,0.0,1.0,0,100.0,42.029,27.029,1,1.0,0,1.0,0,1.0,0,1.0,0,1.0
370,'1',0.0,0.0,92.945,-62.0,1.01125,0,216.55,0.0,0.18,0.0,0.0,1.0,0,100.0,267.313,99.538,1,1.0,0,1.0,0,1.0,0,1.0,0,1.0
370,'2',0.0,0.0,92.945,-62.0,1.01125,0,179.0,0.0,0.18,0.0,0.0,1.0,0,100.0,267.313,99.538,1,1.0,0,1.0,0,1.0,0,1.0,0,1.0
370,'3',0.0,0.0,92.945,-75.0,1.01125,0,179.0,0.0,0.18,0.0,0.0,1.0,0,100.0,267.313,99.538,1,1.0,0,1.0,0,1.0,0,1.0,0,1.0
371,'1',0.0,0.0,65.514,-65.514,1.01125,0,179.0,0.0,0.18,0.0,0.0,1.0,1,100.0,188.421,2.0,1,1.0,0,1.0,0,1.0,0,1.0,0,1.0
373,'1',0.0,0.0,20.13,-20.13,1.01909,0,58.99,0.0,0.2,0.0,0.0,1.0,1,100.0,57.895,26.0,1,1.0,0,1.0,0,1.0,0,1.0,0,1.0
374,'1',0.0,0.0,18.333,-18.333,1.01909,0,55.0,0.0,0.2,0.0,0.0,1.0,0,100.0,55.0,26.0,1,1.0,0,1.0,0,1.0,0,1.0,0,1.0
375,'1',0.0,0.0,107.604,-107.604,1.02182,0,0.36,0.0,0.2,0.0,0.0,1.0,0,100.0,309.474,2.0,1,1.0,0,1.0,0,1.0,0,1.0,0,1.0
376,'1',0.0,0.0,9.516,-9.516,1.02727,0,26.0,0.0,0.2,0.0,0.0,1.0,0,100.0,27.368,2.0,1,1.0,0,1.0,0,1.0,0,1.0,0,1.0
376,'99',0.0,0.0,33.333,-33.333,1.02727,0,100.0,0.0,1.0,0.0,0.0,1.0,0,100.0,261.0,3.293,1,1.0,0,1.0,0,1.0,0,1.0,0,1.0
380,'99',0.0,0.0,33.333,-33.333,1.02669,0,100.0,0.0,1.0,0.0,0.0,1.0,0,100.0,33.035,18.035,1,1.0,0,1.0,0,1.0,0,1.0,0,1.0
384,'1',0.0,0.0,6.588,-6.588,1.02182,0,18.0,0.0,0.2,0.0,0.0,1.0,0,100.0,18.947,2.0,1,1.0,0,1.0,0,1.0,0,1.0,0,1.0
385,'1',0.0,0.0,8.052,-8.052,1.02455,0,22.0,0.0,0.2,0.0,0.0,1.0,1,100.0,23.158,2.0,1,1.0,0,1.0,0,1.0,0,1.0,0,1.0
390,'99',0.0,0.0,33.333,-33.333,1.0389,0,100.0,0.0,1.0,0.0,0.0,1.0,0,100.0,28.078,13.078,1,1.0,0,1.0,0,1.0,0,1.0,0,1.0
391,'1',0.0,0.0,108.336,-108.336,1.02182,0,0.24,0.0,0.2,0.0,0.0,1.0,1,100.0,311.579,2.0,1,1.0,0,1.0,0,1.0,0,1.0,0,1.0
395,'1',0.0,0.0,97.722,-97.722,1.02455,0,2.0,0.0,0.2,0.0,0.0,1.0,0,100.0,281.053,2.0,1,1.0,0,1.0,0,1.0,0,1.0,0,1.0
401,'1',0.0,0.0,94.794,-94.794,1.02182,0,1.0,0.0,0.2,0.0,0.0,1.0,0,100.0,272.632,2.0,1,1.0,0,1.0,0,1.0,0,1.0,0,1.0
402,'1',0.0,0.0,96.258,-96.258,1.02455,0,1.08,0.0,0.2,0.0,0.0,1.0,0,100.0,276.842,2.0,1,1.0,0,1.0,0,1.0,0,1.0,0,1.0
408,'1',0.0,0.0,107.97,-107.97,1.02455,0,0.12,0.0,0.2,0.0,0.0,1.0,0,100.0,310.526,2.0,1,1.0,0,1.0,0,1.0,0,1.0,0,1.0
414,'1',0.0,0.0,100.65,-100.65,1.02182,0,9.0,0.0,0.2,0.0,0.0,1.0,0,100.0,289.474,2.0,1,1.0,0,1.0,0,1.0,0,1.0,0,1.0
416,'1',0.0,0.0,101.016,-101.016,1.02182,0,0.24,0.0,0.2,0.0,0.0,1.0,1,100.0,290.526,2.0,1,1.0,0,1.0,0,1.0,0,1.0,0,1.0
422,'99',0.0,0.0,160.0,-160.0,1.01,0,100.0,0.0,1.0,0.0,0.0,1.0,1,100.0,123.413,3.78,1,1.0,0,1.0,0,1.0,0,1.0,0,1.0
428,'1',0.0,0.0,101.016,-101.016,1.01364,0,7.22,0.0,0.2,0.0,0.0,1.0,1,100.0,290.526,2.0,1,1.0,0,1.0,0,1.0,0,1.0,0,1.0
428,'2',0.0,0.0,97.356,-97.356,1.01364,0,5.0,0.0,0.2,0.0,0.0,1.0,0,100.0,280.0,2.0,1,1.0,0,1.0,0,1.0,0,1.0,0,1.0
428,'3',0.0,0.0,107.97,-107.97,1.01364,0,5.0,0.0,0.2,0.0,0.0,1.0,1,100.0,310.526,2.0,1,1.0,0,1.0,0,1.0,0,1.0,0,1.0
436,'99',0.0,0.0,160.0,-160.0,1.033,0,100.0,0.0,1.0,0.0,0.0,1.0,1,100.0,121.822,11.915,1,1.0,0,1.0,0,1.0,0,1.0,0,1.0
437,'99',0.0,0.0,160.0,-160.0,1.0287,0,100.0,0.0,1.0,0.0,0.0,1.0,1,100.0,179.592,22.39,1,1.0,0,1.0,0,1.0,0,1.0,0,1.0
442,'99',0.0,0.0,33.333,-33.333,1.00009,0,100.0,0.0,1.0,0.0,0.0,1.0,0,100.0,275.0,2.602,1,1.0,0,1.0,0,1.0,0,1.0,0,1.0
443,'99',0.0,0.0,33.333,-33.333,1.00297,0,100.0,0.0,1.0,0.0,0.0,1.0,0,100.0,29.367,14.367,1,1.0,0,1.0,0,1.0,0,1.0,0,1.0
444,'1',0.0,0.0,1.333,-1.333,1.01909,0,4.0,0.0,0.2,0.0,0.0,1.0,0,100.0,289.0,3.0,1,1.0,0,1.0,0,1.0,0,1.0,0,1.0
449,'99',0.0,0.0,160.0,-160.0,1.0044,0,100.0,0.0,1.0,0.0,0.0,1.0,1,100.0,47.8,6.299,1,1.0,0,1.0,0,1.0,0,1.0,0,1.0
469,'1',0.0,0.0,92.964,-92.964,1.01364,0,2.0,0.0,0.2,0.0,0.0,1.0,1,100.0,267.368,2.0,1,1.0,0,1.0,0,1.0,0,1.0,0,1.0
470,'1',0.0,0.0,11.667,-11.667,1.01637,0,35.0,0.0,0.2,0.0,0.0,1.0,0,100.0,35.0,9.0,1,1.0,0,1.0,0,1.0,0,1.0,0,1.0
470,'2',0.0,0.0,9.201,-9.201,1.01637,0,24.12,0.0,0.2,0.0,0.0,1.0,0,100.0,26.461,9.0,1,1.0,0,1.0,0,1.0,0,1.0,0,1.0
471,'1',0.0,0.0,11.667,-11.667,1.01637,0,35.0,0.0,0.2,0.0,0.0,1.0,0,100.0,35.0,9.0,1,1.0,0,1.0,0,1.0,0,1.0,0,1.0
471,'2',0.0,0.0,10.0,-10.0,1.01637,0,30.0,0.0,0.2,0.0,0.0,1.0,0,100.0,30.0,9.0,1,1.0,0,1.0,0,1.0,0,1.0,0,1.0
471,'3',0.0,0.0,9.333,-9.333,1.01637,0,28.0,0.0,0.2,0.0,0.0,1.0,0,100.0,28.0,9.0,1,1.0,0,1.0,0,1.0,0,1.0,0,1.0
474,'99',0.0,0.0,160.0,-160.0,1.0201,0,100.0,0.0,1.0,0.0,0.0,1.0,1,100.0,70.019,10.13,1,1.0,0,1.0,0,1.0,0,1.0,0,1.0
480,'99',0.0,0.0,160.0,-160.0,1.0246,0,100.0,0.0,1.0,0.0,0.0,1.0,1,100.0,65.965,14.473,1,1.0,0,1.0,0,1.0,0,1.0,0,1.0
481,'99',0.0,0.0,160.0,-160.0,1.0299,0,100.0,0.0,1.0,0.0,0.0,1.0,1,100.0,53.3,10.82,1,1.0,0,1.0,0,1.0,0,1.0,0,1.0
482,'99',0.0,0.0,160.0,-160.0,1.0301,0,100.0,0.0,1.0,0.0,0.0,1.0,1,100.0,100.941,24.561,1,1.0,0,1.0,0,1.0,0,1.0,0,1.0
483,'99',0.0,0.0,160.0,-160.0,1.0098,0,100.0,0.0,1.0,0.0,0.0,1.0,1,100.0,306.331,50.888,1,1.0,0,1.0,0,1.0,0,1.0,0,1.0
487,'99',0.0,0.0,160.0,-160.0,1.0367,0,100.0,0.0,1.0,0.0,0.0,1.0,1,100.0,135.14,34.426,1,1.0,0,1.0,0,1.0,0,1.0,0,1.0
490,'99',0.0,0.0,160.0,-160.0,1.0344,0,100.0,0.0,1.0,0.0,0.0,1.0,1,100.0,83.565,19.549,1,1.0,0,1.0,0,1.0,0,1.0,0,1.0
494,'99',0.0,0.0,160.0,-160.0,1.0164,0,100.0,0.0,1.0,0.0,0.0,1.0,1,100.0,83.599,10.194,1,1.0,0,1.0,0,1.0,0,1.0,0,1.0
499,'99',0.0,0.0,160.0,-160.0,1.0239,0,100.0,0.0,1.0,0.0,0.0,1.0,1,100.0,89.883,18.303,1,1.0,0,1.0,0,1.0,0,1.0,0,1.0
525,'99',0.0,0.0,33.333,-33.333,1.01822,0,100.0,0.0,1.0,0.0,0.0,1.0,0,100.0,203.917,188.917,1,1.0,0,1.0,0,1.0,0,1.0,0,1.0
549,'99',0.0,0.0,160.0,-160.0,1.01,0,100.0,0.0,1.0,0.0,0.0,1.0,1,100.0,58.576,7.318,1,1.0,0,1.0,0,1.0,0,1.0,0,1.0
559,'1',0.0,0.0,31.015,-31.015,1.0192,0,93.044,0.0,0.157,0.0,0.0,1.0,0,100.0,80.5,31.0,1,1.0,0,1.0,0,1.0,0,1.0,0,1.0
564,'1',0.0,0.0,47.69,-11.618,1.02214,0,141.505,0.0,0.2425,0.0,0.0,1.0,0,100.0,137.159,36.178,1,1.0,0,1.0,0,1.0,0,1.0,0,1.0
565,'1',0.0,0.0,47.692,-11.62,1.02214,0,135.577,0.0,0.1428,0.0,0.0,1.0,1,100.0,137.164,38.4,1,1.0,0,1.0,0,1.0,0,1.0,0,1.0
566,'1',0.0,0.0,47.692,-11.62,1.02214,0,120.747,0.0,0.2232,0.0,0.0,1.0,0,100.0,137.164,26.42,1,1.0,0,1.0,0,1.0,0,1.0,0,1.0
567,'1',0.0,0.0,47.692,-11.62,1.02214,0,153.119,0.0,0.1325,0.0,0.0,1.0,0,100.0,137.164,13.12,1,1.0,0,1.0,0,1.0,0,1.0,0,1.0
568,'1',0.0,0.0,47.69,-11.618,1.02214,0,120.216,0.0,0.1301,0.0,0.0,1.0,0,100.0,137.159,52.077,1,1.0,0,1.0,0,1.0,0,1.0,0,1.0
569,'1',0.0,0.0,47.692,-11.62,1.02214,0,110.999,0.0,0.1214,0.0,0.0,1.0,1,100.0,137.164,23.76,1,1.0,0,1.0,0,1.0,0,1.0,0,1.0
570,'1',0.0,0.0,44.179,-44.179,1.02214,0,132.538,0.0,0.1762,0.0,0.0,1.0,0,100.0,95.0,40.98,1,1.0,0,1.0,0,1.0,0,1.0,0,1.0
571,'1',0.0,0.0,43.286,-10.545,1.02214,0,125.632,0.0,0.2248,0.0,0.0,1.0,1,100.0,124.493,41.357,1,1.0,0,1.0,0,1.0,0,1.0,0,1.0
572,'1',0.0,0.0,43.286,-10.54,1.02214,0,97.012,0.0,0.1084,0.0,0.0,1.0,0,100.0,124.493,39.82,1,1.0,0,1.0,0,1.0,0,1.0,0,1.0
573,'1',0.0,0.0,5.906,-5.906,1.01,0,12.76,0.0,1.0,0.0,0.0,1.0,0,100.0,16.985,2.0,1,1.0,0,1.0,0,1.0,0,1.0,0,1.0
576,'99',0.0,0.0,33.333,-33.333,1.01,0,100.0,0.0,1.0,0.0,0.0,1.0,0,100.0,85.769,70.769,1,1.0,0,1.0,0,1.0,0,1.0,0,1.0
578,'1',0.0,0.0,75.03,-21.0,1.02455,0,253.76,0.0,0.18,0.0,0.0,1.0,1,100.0,215.789,135.0,1,1.0,0,1.0,0,1.0,0,1.0,0,1.0
579,'2',0.0,0.0,68.333,-68.333,1.02455,0,205.0,0.0,0.18,0.0,0.0,1.0,0,100.0,205.0,135.0,1,1.0,0,1.0,0,1.0,0,1.0,0,1.0
579,'3',0.0,0.0,84.912,-31.0,1.02455,0,232.0,0.0,0.18,0.0,0.0,1.0,0,100.0,244.211,100.0,1,1.0,0,1.0,0,1.0,0,1.0,0,1.0
579,'98',0.0,0.0,183.0,-183.0,1.02455,0,222.0,0.0,0.18,0.0,0.0,1.0,1,100.0,526.316,2.0,1,1.0,0,1.0,0,1.0,0,1.0,0,1.0
580,'1',0.0,0.0,91.616,-15.0,1.00975,0,268.92,0.0,0.18,0.0,0.0,1.0,0,100.0,263.492,90.0,1,1.0,0,1.0,0,1.0,0,1.0,0,1.0
581,'1',0.0,0.0,77.333,-77.333,1.00975,0,232.0,0.0,0.18,0.0,0.0,1.0,0,100.0,232.0,100.0,1,1.0,0,1.0,0,1.0,0,1.0,0,1.0
581,'2',0.0,0.0,91.5,-15.0,1.00975,0,268.92,0.0,0.18,0.0,0.0,1.0,0,100.0,263.158,90.0,1,1.0,0,1.0,0,1.0,0,1.0,0,1.0
587,'99',0.0,0.0,160.0,-160.0,1.01,0,100.0,0.0,1.0,0.0,0.0,1.0,1,100.0,963.105,72.892,1,1.0,0,1.0,0,1.0,0,1.0,0,1.0
591,'99',0.0,0.0,33.333,-33.333,1.01103,0,100.0,0.0,1.0,0.0,0.0,1.0,0,100.0,74.949,59.949,1,1.0,0,1.0,0,1.0,0,1.0,0,1.0
596,'1',0.0,0.0,81.252,-19.0,1.015,0,222.0,0.0,0.18,0.0,0.0,1.0,1,100.0,233.684,90.0,1,1.0,0,1.0,0,1.0,0,1.0,0,1.0
599,'1',0.0,0.0,0.333,-0.333,1.02455,0,1.0,0.0,0.2,0.0,0.0,1.0,0,100.0,299.0,2.0,1,1.0,0,1.0,0,1.0,0,1.0,0,1.0
602,'1',0.0,0.0,7.32,-7.32,1.01091,0,20.0,0.0,0.2,0.0,0.0,1.0,1,100.0,21.053,5.0,1,1.0,0,1.0,0,1.0,0,1.0,0,1.0
611,'1',0.0,0.0,9.516,-9.516,1.02727,0,26.0,0.0,0.2,0.0,0.0,1.0,0,100.0,27.368,2.0,1,1.0,0,1.0,0,1.0,0,1.0,0,1.0
619,'1',0.0,0.0,0.333,-0.333,1.02455,0,1.0,0.0,0.2,0.0,0.0,1.0,0,100.0,252.0,2.0,1,1.0,0,1.0,0,1.0,0,1.0,0,1.0
620,'1',0.0,0.0,94.428,-94.428,1.02455,0,2.0,0.0,0.2,0.0,0.0,1.0,1,100.0,271.579,2.0,1,1.0,0,1.0,0,1.0,0,1.0,0,1.0
623,'99',0.0,0.0,33.333,-33.333,1.03915,0,100.0,0.0,1.0,0.0,0.0,1.0,0,100.0,259.0,5.802,1,1.0,0,1.0,0,1.0,0,1.0,0,1.0
625,'1',0.0,0.0,18.3,-18.3,1.02727,0,50.0,0.0,0.2,0.0,0.0,1.0,1,100.0,52.632,2.0,1,1.0,0,1.0,0,1.0,0,1.0,0,1.0
630,'1',0.0,0.0,101.382,-101.382,1.02478,0,108.13,0.0,0.18,0.0,0.0,1.0,1,100.0,291.579,2.0,1,1.0,0,1.0,0,1.0,0,1.0,0,1.0
633,'99',0.0,0.0,160.0,-160.0,1.01,0,100.0,0.0,1.0,0.0,0.0,1.0,1,100.0,145.216,10.951,1,1.0,0,1.0,0,1.0,0,1.0,0,1.0
634,'99',0.0,0.0,160.0,-160.0,1.01,0,100.0,0.0,1.0,0.0,0.0,1.0,1,100.0,296.567,15.443,1,1.0,0,1.0,0,1.0,0,1.0,0,1.0
639,'99',0.0,0.0,33.333,-33.333,1.01,0,100.0,0.0,1.0,0.0,0.0,1.0,0,100.0,85.248,70.248,1,1.0,0,1.0,0,1.0,0,1.0,0,1.0
640,'99',0.0,0.0,33.333,-33.333,1.01,0,100.0,0.0,1.0,0.0,0.0,1.0,0,100.0,221.788,206.788,1,1.0,0,1.0,0,1.0,0,1.0,0,1.0
645,'1',0.0,0.0,92.855,-62.0,1.01125,0,216.55,0.0,0.18,0.0,0.0,1.0,1,100.0,267.056,98.483,1,1.0,0,1.0,0,1.0,0,1.0,0,1.0
645,'2',0.0,0.0,92.855,-62.0,1.01125,0,179.0,0.0,0.18,0.0,0.0,1.0,0,100.0,267.056,98.483,1,1.0,0,1.0,0,1.0,0,1.0,0,1.0
645,'3',0.0,0.0,92.855,-75.0,1.01125,0,179.0,0.0,0.18,0.0,0.0,1.0,1,100.0,267.056,98.483,1,1.0,0,1.0,0,1.0,0,1.0,0,1.0
646,'1',0.0,0.0,65.514,-65.514,1.01125,0,179.0,0.0,0.18,0.0,0.0,1.0,1,100.0,188.421,2.0,1,1.0,0,1.0,0,1.0,0,1.0,0,1.0
648,'98',0.0,0.0,183.0,-183.0,1.02143,0,100.0,0.0,0.1,0.0,0.0,1.0,1,100.0,526.316,2.0,1,1.0,0,1.0,0,1.0,0,1.0,0,1.0
649,'1',0.0,0.0,20.13,-20.13,1.01909,0,58.99,0.0,0.2,0.0,0.0,1.0,0,100.0,57.895,26.0,1,1.0,0,1.0,0,1.0,0,1.0,0,1.0
650,'1',0.0,0.0,18.333,-18.333,1.01909,0,55.0,0.0,0.2,0.0,0.0,1.0,0,100.0,55.0,26.0,1,1.0,0,1.0,0,1.0,0,1.0,0,1.0
652,'1',0.0,0.0,98.82,-98.82,1.02182,0,0.36,0.0,0.2,0.0,0.0,1.0,1,100.0,284.211,2.0,1,1.0,0,1.0,0,1.0,0,1.0,0,1.0
652,'98',0.0,0.0,183.0,-183.0,1.02182,0,100.0,0.0,0.1,0.0,0.0,1.0,1,100.0,526.316,2.0,1,1.0,0,1.0,0,1.0,0,1.0,0,1.0
659,'1',0.0,0.0,6.588,-6.588,1.02182,0,18.0,0.0,0.2,0.0,0.0,1.0,1,100.0,18.947,2.0,1,1.0,0,1.0,0,1.0,0,1.0,0,1.0
660,'1',0.0,0.0,8.052,-8.052,1.02455,0,22.0,0.0,0.2,0.0,0.0,1.0,0,100.0,23.158,2.0,1,1.0,0,1.0,0,1.0,0,1.0,0,1.0
667,'1',0.0,0.0,108.702,-108.702,1.02182,0,0.24,0.0,0.2,0.0,0.0,1.0,1,100.0,312.632,2.0,1,1.0,0,1.0,0,1.0,0,1.0,0,1.0
667,'98',0.0,0.0,183.0,-183.0,1.02182,0,100.0,0.0,0.1,0.0,0.0,1.0,1,100.0,526.316,2.0,1,1.0,0,1.0,0,1.0,0,1.0,0,1.0
674,'1',0.0,0.0,100.284,-100.284,1.02455,0,2.0,0.0,0.2,0.0,0.0,1.0,1,100.0,288.421,2.0,1,1.0,0,1.0,0,1.0,0,1.0,0,1.0
675,'1',0.0,0.0,5.49,-5.49,1.02182,0,15.0,0.0,0.2,0.0,0.0,1.0,1,100.0,15.789,2.0,1,1.0,0,1.0,0,1.0,0,1.0,0,1.0
679,'1',0.0,0.0,93.33,-93.33,1.02182,0,1.0,0.0,0.2,0.0,0.0,1.0,0,100.0,268.421,2.0,1,1.0,0,1.0,0,1.0,0,1.0,0,1.0
684,'1',0.0,0.0,107.97,-107.97,1.02455,0,0.12,0.0,0.2,0.0,0.0,1.0,1,100.0,310.526,2.0,1,1.0,0,1.0,0,1.0,0,1.0,0,1.0
684,'99',0.0,0.0,33.333,-33.333,1.02455,0,100.0,0.0,1.0,0.0,0.0,1.0,0,100.0,34.44,19.44,1,1.0,0,1.0,0,1.0,0,1.0,0,1.0
688,'1',0.0,0.0,98.088,-98.088,1.02182,0,9.0,0.0,0.2,0.0,0.0,1.0,1,100.0,282.105,2.0,1,1.0,0,1.0,0,1.0,0,1.0,0,1.0
690,'1',0.0,0.0,106.506,-106.506,1.02182,0,0.24,0.0,0.2,0.0,0.0,1.0,1,100.0,306.316,2.0,1,1.0,0,1.0,0,1.0,0,1.0,0,1.0
690,'98',0.0,0.0,183.0,-183.0,1.02182,0,100.0,0.0,0.1,0.0,0.0,1.0,1,100.0,526.316,2.0,1,1.0,0,1.0,0,1.0,0,1.0,0,1.0
693,'98',0.0,0.0,183.0,-183.0,1.02438,0,100.0,0.0,0.1,0.0,0.0,1.0,1,100.0,526.316,2.0,1,1.0,0,1.0,0,1.0,0,1.0,0,1.0
696,'99',0.0,0.0,33.333,-33.333,1.02419,0,100.0,0.0,1.0,0.0,0.0,1.0,0,100.0,28.122,13.122,1,1.0,0,1.0,0,1.0,0,1.0,0,1.0
697,'99',0.0,0.0,33.333,-33.333,1.01937,0,100.0,0.0,1.0,0.0,0.0,1.0,0,100.0,257.0,4.417,1,1.0,0,1.0,0,1.0,0,1.0,0,1.0
698,'1',0.0,0.0,52.613,-1.0,1.02455,0,148.19,0.0,0.18,0.0,0.0,1.0,0,100.0,151.316,70.0,1,1.0,0,1.0,0,1.0,0,1.0,0,1.0
702,'1',0.0,0.0,50.325,-40.0,1.02455,0,147.7,0.0,0.18,0.0,0.0,1.0,0,100.0,144.737,32.0,1,1.0,0,1.0,0,1.0,0,1.0,0,1.0
703,'1',0.0,0.0,37.667,-37.667,1.02455,0,113.0,0.0,0.18,0.0,0.0,1.0,0,100.0,113.0,32.0,1,1.0,0,1.0,0,1.0,0,1.0,0,1.0
706,'1',0.0,0.0,45.0,-45.0,1.02455,0,135.0,0.0,0.18,0.0,0.0,1.0,0,100.0,135.0,35.0,1,1.0,0,1.0,0,1.0,0,1.0,0,1.0
719,'1',0.0,0.0,54.903,-1.25,1.02455,0,144.0,0.0,0.18,0.0,0.0,1.0,0,100.0,157.903,79.0,1,1.0,0,1.0,0,1.0,0,1.0,0,1.0
719,'2',0.0,0.0,36.667,-36.667,1.02455,0,110.0,0.0,0.18,0.0,0.0,1.0,0,100.0,110.0,79.0,1,1.0,0,1.0,0,1.0,0,1.0,0,1.0
...
0 / END OF GENERATOR DATA BEGIN BRANCH DATA
1,60,'1',0.02461,0.07336,0.00802,128.0,128.0,128.0,0.0,0.0,0.0,0.0,1,1,0.0,1,1.0,0,1.0,0,1.0,0,1.0
1,93,'1',0.03244,0.09513,0.01073,128.0,128.0,128.0,0.0,0.0,0.0,0.0,1,2,0.0,1,1.0,0,1.0,0,1.0,0,1.0
2,74,'1',0.00068,0.00368,0.00043,125.0,125.0,125.0,0.0,0.0,0.0,0.0,1,2,0.0,1,1.0,0,1.0,0,1.0,0,1.0
2,549,'TL',0.0001,0.01,0.0,119.81,143.78,143.8,0.0,0.0,0.0,0.0,1,1,0.0,45,1.0,0,1.0,0,1.0,0,1.0
4,43,'1',0.0037,0.01909,0.00247,190.0,190.0,190.0,0.0,0.0,0.0,0.0,1,1,0.0,1,1.0,0,1.0,0,1.0,0,1.0
4,93,'1',0.00349,0.01802,0.00231,190.0,190.0,190.0,0.0,0.0,0.0,0.0,1,2,0.0,1,1.0,0,1.0,0,1.0,0,1.0
7,60,'1',0.01649,0.04916,0.00537,128.0,128.0,128.0,0.0,0.0,0.0,0.0,1,1,0.0,1,1.0,0,1.0,0,1.0,0,1.0
7,73,'1',0.00374,0.01116,0.00122,128.0,128.0,128.0,0.0,0.0,0.0,0.0,1,1,0.0,1,1.0,0,1.0,0,1.0,0,1.0
10,27,'1',0.0125,0.02353,0.00262,74.0,74.0,74.0,0.0,0.0,0.0,0.0,1,2,0.0,1,1.0,0,1.0,0,1.0,0,1.0
11,92,'1',0.00236,0.00669,0.00079,62.0,62.0,62.0,0.0,0.0,0.0,0.0,1,1,0.0,1,1.0,0,1.0,0,1.0,0,1.0
16,93,'1',0.00506,0.01482,0.00168,333.45,384.75,384.8,0.0,0.0,0.0,0.0,1,2,0.0,1,1.0,0,1.0,0,1.0,0,1.0
17,81,'1',0.00892,0.05374,0.01281,249.0,249.0,249.0,0.0,0.0,0.0,0.0,1,1,0.0,1,1.0,0,1.0,0,1.0,0,1.0
17,93,'1',0.0001,0.001,0.0,260.0,312.0,312.0,0.0,0.0,0.0,0.0,1,2,0.0,1,1.0,0,1.0,0,1.0,0,1.0
18,66,'1',2e-05,0.001,0.0,333.0,350.0,350.0,0.0,0.0,0.0,0.0,1,1,0.0,1,1.0,0,1.0,0,1.0,0,1.0
19,31,'1',0.00071,0.00582,0.01221,510.0,510.0,510.0,0.0,0.0,0.0,0.0,1,1,0.0,1,1.0,0,1.0,0,1.0,0,1.0
19,35,'1',7e-05,0.001,0.00171,564.0,612.0,612.0,0.0,0.0,0.0,0.0,1,1,0.0,1,1.0,0,1.0,0,1.0,0,1.0
19,69,'1',0.0001,0.001,0.0,260.0,312.0,312.0,0.0,0.0,0.0,0.0,1,1,0.0,1,1.0,0,1.0,0,1.0,0,1.0
21,57,'1',0.04598,0.09139,0.00983,86.0,86.0,86.0,0.0,0.0,0.0,0.0,1,1,0.0,1,1.0,0,1.0,0,1.0,0,1.0
21,91,'1',0.02947,0.10073,0.01266,86.0,86.0,86.0,0.0,0.0,0.0,0.0,1,1,0.0,1,1.0,0,1.0,0,1.0,0,1.0
22,67,'1',0.01108,0.04402,0.00618,236.27,283.52,283.5,0.0,0.0,0.0,0.0,1,1,0.0,1,1.0,0,1.0,0,1.0,0,1.0
22,73,'1',0.00993,0.03804,0.00535,225.46,270.55,270.6,0.0,0.0,0.0,0.0,1,1,0.0,1,1.0,0,1.0,0,1.0,0,1.0
23,44,'1',0.00266,0.01058,0.0015,276.93,332.32,332.3,0.0,0.0,0.0,0.0,1,2,0.0,1,1.0,0,1.0,0,1.0,0,1.0
23,137,'TL',0.0001,0.01,0.0,152.75,183.3,183.3,0.0,0.0,0.0,0.0,1,1,0.0,49,1.0,0,1.0,0,1.0,0,1.0
23,254,'TL',0.0001,0.01,0.0,300.0,400.0,400.0,0.0,0.0,0.0,0.0,1,1,0.0,48,1.0,0,1.0,0,1.0,0,1.0
24,94,'1',0.00489,0.02021,0.00261,141.0,153.0,153.0,0.0,0.0,0.0,0.0,1,2,0.0,1,1.0,0,1.0,0,1.0,0,1.0
27,72,'1',0.01151,0.02166,0.00241,74.0,74.0,74.0,0.0,0.0,0.0,0.0,1,1,0.0,1,1.0,0,1.0,0,1.0,0,1.0
30,73,'1',0.01736,0.07168,0.00928,165.0,165.0,165.0,0.0,0.0,0.0,0.0,1,2,0.0,1,1.0,0,1.0,0,1.0,0,1.0
30,94,'1',0.01303,0.05385,0.00695,141.0,153.0,153.0,0.0,0.0,0.0,0.0,1,1,0.0,1,1.0,0,1.0,0,1.0,0,1.0
31,38,'1',0.00032,0.00211,0.00427,406.0,432.0,432.0,0.0,0.0,0.0,0.0,1,2,0.0,1,1.0,0,1.0,0,1.0,0,1.0
31,66,'1',0.00151,0.01243,0.02626,497.0,497.0,497.0,0.0,0.0,0.0,0.0,1,1,0.0,1,1.0,0,1.0,0,1.0,0,1.0
31,66,'2',0.00151,0.01236,0.02612,510.0,510.0,510.0,0.0,0.0,0.0,0.0,1,1,0.0,1,1.0,0,1.0,0,1.0,0,1.0
32,50,'1',0.0092,0.02296,0.00287,260.0,312.0,312.0,0.0,0.0,0.0,0.0,1,1,0.0,1,1.0,0,1.0,0,1.0,0,1.0
32,72,'1',0.02022,0.04363,0.00517,74.0,74.0,74.0,0.0,0.0,0.0,0.0,1,2,0.0,1,1.0,0,1.0,0,1.0,0,1.0
33,36,'1',0.0001,0.001,0.0,260.0,312.0,312.0,0.0,0.0,0.0,0.0,1,2,0.0,1,1.0,0,1.0,0,1.0,0,1.0
36,38,'1',0.00062,0.00521,0.01419,633.0,633.0,633.0,0.0,0.0,0.0,0.0,1,2,0.0,1,1.0,0,1.0,0,1.0,0,1.0
36,45,'1',0.0001,0.001,0.0,260.0,312.0,312.0,0.0,0.0,0.0,0.0,1,1,0.0,1,1.0,0,1.0,0,1.0,0,1.0
36,483,'TL',0.0001,0.01,0.0,257.59,297.22,297.2,0.0,0.0,0.0,0.0,1,1,0.0,46,1.0,0,1.0,0,1.0,0,1.0
37,55,'1',0.00249,0.02091,0.043,510.0,510.0,510.0,0.0,0.0,0.0,0.0,1,2,0.0,1,1.0,0,1.0,0,1.0,0,1.0
37,79,'1',0.00037,0.00306,0.00647,510.0,510.0,510.0,0.0,0.0,0.0,0.0,1,2,0.0,1,1.0,0,1.0,0,1.0,0,1.0
40,47,'1',0.00855,0.03356,0.00426,160.0,160.0,160.0,0.0,0.0,0.0,0.0,1,2,0.0,1,1.0,0,1.0,0,1.0,0,1.0
40,93,'1',0.01448,0.0565,0.00724,160.0,160.0,160.0,0.0,0.0,0.0,0.0,1,2,0.0,1,1.0,0,1.0,0,1.0,0,1.0
41,46,'1',0.00572,0.03592,0.12701,617.0,617.0,617.0,0.0,0.0,0.0,0.0,1,2,0.0,1,1.0,0,1.0,0,1.0,0,1.0
41,87,'1',0.0001,0.001,0.0,260.0,312.0,312.0,0.0,0.0,0.0,0.0,1,1,0.0,1,1.0,0,1.0,0,1.0,0,1.0
44,67,'1',0.01683,0.06688,0.0094,264.9,317.88,317.9,0.0,0.0,0.0,0.0,1,1,0.0,1,1.0,0,1.0,0,1.0,0,1.0
46,90,'1',0.00242,0.01482,0.05476,658.0,658.0,658.0,0.0,0.0,0.0,0.0,1,1,0.0,1,1.0,0,1.0,0,1.0,0,1.0
50,74,'1',0.00113,0.00465,0.00061,74.0,74.0,74.0,0.0,0.0,0.0,0.0,1,1,0.0,1,1.0,0,1.0,0,1.0,0,1.0
52,87,'1',0.0001,0.001,0.0,260.0,312.0,312.0,0.0,0.0,0.0,0.0,1,1,0.0,1,1.0,0,1.0,0,1.0,0,1.0
53,62,'1',0.00689,0.01291,0.00144,74.0,74.0,74.0,0.0,0.0,0.0,0.0,1,1,0.0,1,1.0,0,1.0,0,1.0,0,1.0
53,82,'1',0.00037,0.001,0.0,74.0,74.0,74.0,0.0,0.0,0.0,0.0,1,1,0.0,1,1.0,0,1.0,0,1.0,0,1.0
57,85,'1',0.0002,0.001,0.0,86.0,86.0,86.0,0.0,0.0,0.0,0.0,1,2,0.0,1,1.0,0,1.0,0,1.0,0,1.0
58,76,'1',0.02397,0.04498,0.00499,74.0,74.0,74.0,0.0,0.0,0.0,0.0,1,1,0.0,1,1.0,0,1.0,0,1.0,0,1.0
58,91,'1',0.0293,0.08307,0.00997,128.0,128.0,128.0,0.0,0.0,0.0,0.0,1,1,0.0,1,1.0,0,1.0,0,1.0,0,1.0
58,92,'1',0.03256,0.0924,0.01108,59.0,59.0,59.0,0.0,0.0,0.0,0.0,1,1,0.0,1,1.0,0,1.0,0,1.0,0,1.0
58,499,'TL',0.0001,0.01,0.0,139.18,167.01,167.0,0.0,0.0,0.0,0.0,1,1,0.0,47,1.0,0,1.0,0,1.0,0,1.0
62,76,'1',0.00523,0.00981,0.00108,74.0,74.0,74.0,0.0,0.0,0.0,0.0,1,1,0.0,1,1.0,0,1.0,0,1.0,0,1.0
63,90,'1',0.00075,0.00528,0.02325,331.0,331.0,331.0,0.0,0.0,0.0,0.0,1,1,0.0,1,1.0,0,1.0,0,1.0,0,1.0
68,83,'1',0.01058,0.02193,0.00216,86.0,86.0,86.0,0.0,0.0,0.0,0.0,1,2,0.0,1,1.0,0,1.0,0,1.0,0,1.0
68,84,'1',0.0059,0.01222,0.00121,86.0,86.0,86.0,0.0,0.0,0.0,0.0,1,1,0.0,1,1.0,0,1.0,0,1.0,0,1.0
69,86,'1',0.00519,0.04108,0.09283,510.0,510.0,510.0,0.0,0.0,0.0,0.0,1,1,0.0,1,1.0,0,1.0,0,1.0,0,1.0
71,93,'1',0.03778,0.11512,0.0141,128.0,128.0,128.0,0.0,0.0,0.0,0.0,1,2,0.0,1,1.0,0,1.0,0,1.0,0,1.0
79,87,'1',0.00493,0.0412,0.0844,510.0,510.0,510.0,0.0,0.0,0.0,0.0,1,2,0.0,1,1.0,0,1.0,0,1.0,0,1.0
81,494,'TL',0.0001,0.01,0.0,235.85,272.14,272.1,0.0,0.0,0.0,0.0,1,1,0.0,44,1.0,0,1.0,0,1.0,0,1.0
83,91,'1',0.0039,0.01106,0.00133,86.0,86.0,86.0,0.0,0.0,0.0,0.0,1,1,0.0,1,1.0,0,1.0,0,1.0,0,1.0
95,96,'1',2e-05,0.00021,0.0,876.0,876.0,876.0,0.0,0.0,0.0,0.0,1,2,0.0,1,1.0,0,1.0,0,1.0,0,1.0
95,99,'1',0.00171,0.00961,0.01424,250.0,250.0,250.0,0.0,0.0,0.0,0.0,1,2,0.0,1,1.0,0,1.0,0,1.0,0,1.0
96,748,'TL',0.0001,0.01,0.0,121.81,146.17,146.2,0.0,0.0,0.0,0.0,1,1,0.0,4,1.0,0,1.0,0,1.0,0,1.0
97,98,'1',2e-05,0.00021,0.0,876.0,876.0,876.0,0.0,0.0,0.0,0.0,1,2,0.0,1,1.0,0,1.0,0,1.0,0,1.0
97,100,'1',0.00194,0.01415,0.0223,341.0,341.0,341.0,0.0,0.0,0.0,0.0,1,2,0.0,1,1.0,0,1.0,0,1.0,0,1.0
97,697,'TL',0.0001,0.01,0.0,83.7,98.6,98.6,0.0,0.0,0.0,0.0,1,1,0.0,8,1.0,0,1.0,0,1.0,0,1.0
98,749,'TL',0.0001,0.01,0.0,122.55,141.4,141.4,0.0,0.0,0.0,0.0,1,2,0.0,6,1.0,0,1.0,0,1.0,0,1.0
99,100,'1',2e-05,0.00021,0.0,876.0,876.0,876.0,0.0,0.0,0.0,0.0,1,2,0.0,1,1.0,0,1.0,0,1.0,0,1.0
99,102,'1',0.00537,0.04039,0.06005,319.0,319.0,319.0,0.0,0.0,0.0,0.0,1,1,0.0,1,1.0,0,1.0,0,1.0,0,1.0
100,698,'TL',0.0001,0.01,0.0,187.88,216.79,216.8,0.0,0.0,0.0,0.0,1,2,0.0,11,1.0,0,1.0,0,1.0,0,1.0
101,102,'1',0.00066,0.00496,0.00758,319.0,319.0,319.0,0.0,0.0,0.0,0.0,1,2,0.0,1,1.0,0,1.0,0,1.0,0,1.0
101,696,'TL',0.0001,0.01,0.0,125.8,150.96,151.0,0.0,0.0,0.0,0.0,1,1,0.0,9,1.0,0,1.0,0,1.0,0,1.0
102,747,'TL',0.0001,0.01,0.0,258.73,298.54,298.5,0.0,0.0,0.0,0.0,1,1,0.0,5,1.0,0,1.0,0,1.0,0,1.0
103,152,'1',0.01248,0.04595,0.00524,75.0,75.0,75.0,0.0,0.0,0.0,0.0,1,2,0.0,1,1.0,0,1.0,0,1.0,0,1.0
104,105,'1',8e-05,0.00083,0.0,634.11,731.66,731.7,0.0,0.0,0.0,0.0,1,2,0.0,1,1.0,0,1.0,0,1.0,0,1.0
104,170,'1',0.00364,0.01149,0.00123,644.69,743.87,743.9,0.0,0.0,0.0,0.0,1,2,0.0,1,1.0,0,1.0,0,1.0,0,1.0
105,180,'1',0.00653,0.02058,0.00222,628.23,724.88,724.9,0.0,0.0,0.0,0.0,1,2,0.0,1,1.0,0,1.0,0,1.0,0,1.0
106,107,'1',8e-05,0.00083,0.0,438.0,438.0,438.0,0.0,0.0,0.0,0.0,1,2,0.0,1,1.0,0,1.0,0,1.0,0,1.0
106,140,'1',0.00488,0.01231,0.00189,74.62,97.01,97.0,0.0,0.0,0.0,0.0,1,2,0.0,1,1.0,0,1.0,0,1.0,0,1.0
107,203,'1',0.00074,0.00223,0.0003,62.0,62.0,62.0,0.0,0.0,0.0,0.0,1,1,0.0,1,1.0,0,1.0,0,1.0,0,1.0
108,170,'1',0.00157,0.00463,0.00057,653.46,753.99,754.0,0.0,0.0,0.0,0.0,1,1,0.0,1,1.0,0,1.0,0,1.0,0,1.0
108,684,'TL',0.0001,0.01,0.0,667.77,770.51,770.5,0.0,0.0,0.0,0.0,1,1,0.0,24,1.0,0,1.0,0,1.0,0,1.0
109,144,'1',0.00041,0.00124,0.00013,75.0,75.0,75.0,0.0,0.0,0.0,0.0,1,1,0.0,1,1.0,0,1.0,0,1.0,0,1.0
110,111,'1',8e-05,0.00083,0.0,438.0,438.0,438.0,0.0,0.0,0.0,0.0,1,2,0.0,1,1.0,0,1.0,0,1.0,0,1.0
110,140,'1',0.00455,0.01289,0.00174,62.0,62.0,62.0,0.0,0.0,0.0,0.0,1,2,0.0,1,1.0,0,1.0,0,1.0,0,1.0
111,207,'1',0.00603,0.01711,0.00231,62.0,62.0,62.0,0.0,0.0,0.0,0.0,1,2,0.0,1,1.0,0,1.0,0,1.0,0,1.0
112,113,'1',8e-05,0.00083,0.0,438.0,438.0,438.0,0.0,0.0,0.0,0.0,1,2,0.0,1,1.0,0,1.0,0,1.0,0,1.0
112,114,'1',0.0005,0.00149,0.0096,98.0,98.0,98.0,0.0,0.0,0.0,0.0,1,1,0.0,1,1.0,0,1.0,0,1.0,0,1.0
114,131,'1',8e-05,0.00066,7e-05,132.0,152.31,152.3,0.0,0.0,0.0,0.0,1,2,0.0,1,1.0,0,1.0,0,1.0,0,1.0
114,190,'1',0.00207,0.01413,0.00162,154.01,177.7,177.7,0.0,0.0,0.0,0.0,1,1,0.0,1,1.0,0,1.0,0,1.0,0,1.0
115,126,'1',0.00339,0.01116,0.00113,75.0,75.0,75.0,0.0,0.0,0.0,0.0,1,1,0.0,1,1.0,0,1.0,0,1.0,0,1.0
115,150,'1',0.00132,0.00231,0.00023,47.0,47.0,47.0,0.0,0.0,0.0,0.0,1,2,0.0,1,1.0,0,1.0,0,1.0,0,1.0
115,175,'1',0.00636,0.0205,0.00213,75.0,75.0,75.0,0.0,0.0,0.0,0.0,1,2,0.0,1,1.0,0,1.0,0,1.0,0,1.0
115,178,'1',0.00264,0.00818,0.00094,75.0,75.0,75.0,0.0,0.0,0.0,0.0,1,1,0.0,1,1.0,0,1.0,0,1.0,0,1.0
115,192,'1',0.0081,0.02298,0.00239,63.0,63.0,63.0,0.0,0.0,0.0,0.0,1,1,0.0,1,1.0,0,1.0,0,1.0,0,1.0
116,117,'1',8e-05,0.00083,0.0,438.0,438.0,438.0,0.0,0.0,0.0,0.0,1,2,0.0,1,1.0,0,1.0,0,1.0,0,1.0
116,132,'1',0.00174,0.00496,0.00065,57.0,57.0,57.0,0.0,0.0,0.0,0.0,1,2,0.0,1,1.0,0,1.0,0,1.0,0,1.0
116,153,'1',0.00455,0.01405,0.0016,75.0,75.0,75.0,0.0,0.0,0.0,0.0,1,2,0.0,1,1.0,0,1.0,0,1.0,0,1.0
116,186,'1',0.00504,0.01562,0.00173,75.0,75.0,75.0,0.0,0.0,0.0,0.0,1,2,0.0,1,1.0,0,1.0,0,1.0,0,1.0
116,195,'1',0.00711,0.02322,0.00234,302.57,349.12,349.1,0.0,0.0,0.0,0.0,1,1,0.0,1,1.0,0,1.0,0,1.0,0,1.0
117,145,'1',0.00496,0.01628,0.00164,123.52,148.23,148.2,0.0,0.0,0.0,0.0,1,1,0.0,1,1.0,0,1.0,0,1.0,0,1.0
117,168,'1',0.00496,0.01496,0.00179,172.26,198.76,198.8,0.0,0.0,0.0,0.0,1,2,0.0,1,1.0,0,1.0,0,1.0,0,1.0
117,187,'1',0.00504,0.01562,0.00173,75.0,75.0,75.0,0.0,0.0,0.0,0.0,1,2,0.0,1,1.0,0,1.0,0,1.0,0,1.0
118,119,'1',0.00124,0.00421,0.00059,70.0,70.0,70.0,0.0,0.0,0.0,0.0,1,2,0.0,1,1.0,0,1.0,0,1.0,0,1.0
119,122,'1',0.00413,0.01587,0.00183,91.74,105.86,105.9,0.0,0.0,0.0,0.0,1,1,0.0,1,1.0,0,1.0,0,1.0,0,1.0
119,152,'1',0.00488,0.01678,0.00193,100.5,115.96,116.0,0.0,0.0,0.0,0.0,1,2,0.0,1,1.0,0,1.0,0,1.0,0,1.0
120,144,'1',0.00355,0.01149,0.00116,75.0,75.0,75.0,0.0,0.0,0.0,0.0,1,2,0.0,1,1.0,0,1.0,0,1.0,0,1.0
120,199,'1',0.00182,0.00587,0.00587,114.0,114.0,114.0,0.0,0.0,0.0,0.0,1,2,0.0,1,1.0,0,1.0,0,1.0,0,1.0
121,122,'1',8e-05,0.00083,0.0,438.0,438.0,438.0,0.0,0.0,0.0,0.0,1,2,0.0,1,1.0,0,1.0,0,1.0,0,1.0
121,124,'1',0.00066,0.00207,0.00021,75.0,75.0,75.0,0.0,0.0,0.0,0.0,1,2,0.0,1,1.0,0,1.0,0,1.0,0,1.0
121,136,'1',0.00066,0.0024,0.00031,80.0,80.0,80.0,0.0,0.0,0.0,0.0,1,2,0.0,1,1.0,0,1.0,0,1.0,0,1.0
121,144,'1',0.00314,0.01355,0.00135,80.0,80.0,80.0,0.0,0.0,0.0,0.0,1,2,0.0,1,1.0,0,1.0,0,1.0,0,1.0
121,162,'1',0.00223,0.00826,0.00099,70.0,70.0,70.0,0.0,0.0,0.0,0.0,1,2,0.0,1,1.0,0,1.0,0,1.0,0,1.0
122,123,'1',0.00066,0.00215,0.00022,75.0,75.0,75.0,0.0,0.0,0.0,0.0,1,2,0.0,1,1.0,0,1.0,0,1.0,0,1.0
122,144,'1',0.00314,0.01355,0.00135,80.0,80.0,80.0,0.0,0.0,0.0,0.0,1,2,0.0,1,1.0,0,1.0,0,1.0,0,1.0
122,197,'1',0.00091,0.00273,0.00033,75.0,75.0,75.0,0.0,0.0,0.0,0.0,1,2,0.0,1,1.0,0,1.0,0,1.0,0,1.0
125,144,'1',0.0014,0.00455,0.00046,75.0,75.0,75.0,0.0,0.0,0.0,0.0,1,2,0.0,1,1.0,0,1.0,0,1.0,0,1.0
127,128,'1',8e-05,0.00083,0.0,438.0,438.0,438.0,0.0,0.0,0.0,0.0,1,2,0.0,1,1.0,0,1.0,0,1.0,0,1.0
127,140,'1',0.00405,0.01331,0.00135,107.11,123.59,123.6,0.0,0.0,0.0,0.0,1,2,0.0,1,1.0,0,1.0,0,1.0,0,1.0
128,182,'1',0.01025,0.02926,0.0039,107.37,123.89,123.9,0.0,0.0,0.0,0.0,1,1,0.0,1,1.0,0,1.0,0,1.0,0,1.0
129,130,'1',0.00231,0.00273,0.00058,39.0,39.0,39.0,0.0,0.0,0.0,0.0,1,2,0.0,1,1.0,0,1.0,0,1.0,0,1.0
130,151,'1',0.00579,0.01785,0.00204,198.93,238.72,238.7,0.0,0.0,0.0,0.0,1,2,0.0,1,1.0,0,1.0,0,1.0,0,1.0
130,174,'1',0.0043,0.01347,0.00147,188.62,226.34,226.3,0.0,0.0,0.0,0.0,1,1,0.0,1,1.0,0,1.0,0,1.0,0,1.0
133,167,'1',0.01198,0.03702,0.00418,156.12,180.13,180.1,0.0,0.0,0.0,0.0,1,1,0.0,1,1.0,0,1.0,0,1.0,0,1.0
133,757,'TL',0.0001,0.01,0.0,151.01,174.25,174.3,0.0,0.0,0.0,0.0,1,2,0.0,7,1.0,0,1.0,0,1.0,0,1.0
135,144,'1',0.00372,0.01207,0.00122,75.0,75.0,75.0,0.0,0.0,0.0,0.0,1,1,0.0,1,1.0,0,1.0,0,1.0,0,1.0
137,174,'1',0.00686,0.02215,0.00232,174.85,209.82,209.8,0.0,0.0,0.0,0.0,1,2,0.0,1,1.0,0,1.0,0,1.0,0,1.0
138,139,'1',0.00033,0.00041,9e-05,39.0,39.0,39.0,0.0,0.0,0.0,0.0,1,1,0.0,1,1.0,0,1.0,0,1.0,0,1.0
139,151,'1',0.0076,0.02355,0.00263,604.64,697.67,697.7,0.0,0.0,0.0,0.0,1,2,0.0,1,1.0,0,1.0,0,1.0,0,1.0
139,179,'1',0.00273,0.00876,0.0009,607.79,701.3,701.3,0.0,0.0,0.0,0.0,1,1,0.0,1,1.0,0,1.0,0,1.0,0,1.0
140,190,'1',0.01694,0.05562,0.0056,95.16,109.8,109.8,0.0,0.0,0.0,0.0,1,2,0.0,1,1.0,0,1.0,0,1.0,0,1.0
141,151,'1',0.03413,0.08545,0.00909,144.77,167.04,167.0,0.0,0.0,0.0,0.0,1,1,0.0,1,1.0,0,1.0,0,1.0,0,1.0
141,158,'1',0.00992,0.01661,0.00395,109.6,126.46,126.5,0.0,0.0,0.0,0.0,1,1,0.0,1,1.0,0,1.0,0,1.0,0,1.0
141,164,'1',0.02496,0.03802,0.00491,39.0,39.0,39.0,0.0,0.0,0.0,0.0,1,1,0.0,1,1.0,0,1.0,0,1.0,0,1.0
141,205,'1',0.0062,0.01562,0.00277,62.0,62.0,62.0,0.0,0.0,0.0,0.0,1,1,0.0,1,1.0,0,1.0,0,1.0,0,1.0
142,143,'1',8e-05,0.00083,0.0,438.0,438.0,438.0,0.0,0.0,0.0,0.0,1,2,0.0,1,1.0,0,1.0,0,1.0,0,1.0
142,211,'1',0.00463,0.01446,0.00163,75.0,75.0,75.0,0.0,0.0,0.0,0.0,1,1,0.0,1,1.0,0,1.0,0,1.0,0,1.0
143,740,'TL',0.0001,0.01,0.0,83.7,98.6,98.6,0.0,0.0,0.0,0.0,1,1,0.0,10,1.0,0,1.0,0,1.0,0,1.0
144,192,'1',0.0014,0.00471,0.00048,75.0,75.0,75.0,0.0,0.0,0.0,0.0,1,2,0.0,1,1.0,0,1.0,0,1.0,0,1.0
144,193,'1',0.00331,0.01066,0.0011,75.0,75.0,75.0,0.0,0.0,0.0,0.0,1,1,0.0,1,1.0,0,1.0,0,1.0,0,1.0
145,275,'TL',0.0001,0.01,0.0,124.05,148.86,148.9,0.0,0.0,0.0,0.0,1,1,0.0,18,1.0,0,1.0,0,1.0,0,1.0
146,147,'1',8e-05,0.00083,0.0,438.0,438.0,438.0,0.0,0.0,0.0,0.0,1,2,0.0,1,1.0,0,1.0,0,1.0,0,1.0
146,155,'1',0.0105,0.02983,0.00402,62.0,62.0,62.0,0.0,0.0,0.0,0.0,1,2,0.0,1,1.0,0,1.0,0,1.0,0,1.0
147,208,'1',0.01909,0.05413,0.00729,62.0,62.0,62.0,0.0,0.0,0.0,0.0,1,2,0.0,1,1.0,0,1.0,0,1.0,0,1.0
148,149,'1',0.00438,0.0086,0.00086,47.0,47.0,47.0,0.0,0.0,0.0,0.0,1,2,0.0,1,1.0,0,1.0,0,1.0,0,1.0
149,176,'1',0.00628,0.02,0.00213,75.0,75.0,75.0,0.0,0.0,0.0,0.0,1,2,0.0,1,1.0,0,1.0,0,1.0,0,1.0
149,272,'TL',0.0001,0.01,0.0,83.7,98.6,98.6,0.0,0.0,0.0,0.0,1,1,0.0,19,1.0,0,1.0,0,1.0,0,1.0
151,189,'1',0.00579,0.01446,0.00162,113.45,130.9,130.9,0.0,0.0,0.0,0.0,1,2,0.0,1,1.0,0,1.0,0,1.0,0,1.0
152,161,'1',0.00769,0.02711,0.00317,85.94,111.72,111.7,0.0,0.0,0.0,0.0,1,2,0.0,1,1.0,0,1.0,0,1.0,0,1.0
152,186,'1',0.01025,0.03198,0.00354,62.0,62.0,62.0,0.0,0.0,0.0,0.0,1,1,0.0,1,1.0,0,1.0,0,1.0,0,1.0
152,187,'1',0.01025,0.03198,0.00354,62.0,62.0,62.0,0.0,0.0,0.0,0.0,1,1,0.0,1,1.0,0,1.0,0,1.0,0,1.0
153,154,'1',8e-05,0.00083,0.0,438.0,438.0,438.0,0.0,0.0,0.0,0.0,1,2,0.0,1,1.0,0,1.0,0,1.0,0,1.0
154,211,'1',0.00091,0.00256,0.00033,75.0,75.0,75.0,0.0,0.0,0.0,0.0,1,2,0.0,1,1.0,0,1.0,0,1.0,0,1.0
155,156,'1',8e-05,0.00083,0.0,438.0,438.0,438.0,0.0,0.0,0.0,0.0,1,2,0.0,1,1.0,0,1.0,0,1.0,0,1.0
155,165,'1',0.00628,0.01959,0.00217,62.0,62.0,62.0,0.0,0.0,0.0,0.0,1,2,0.0,1,1.0,0,1.0,0,1.0,0,1.0
155,201,'1',0.00083,0.00248,0.00027,62.0,62.0,62.0,0.0,0.0,0.0,0.0,1,1,0.0,1,1.0,0,1.0,0,1.0,0,1.0
...